Version 4
SHEET 1 3872 2128
WIRE -3712 -7360 -4048 -7360
WIRE -3520 -7360 -3712 -7360
WIRE -3056 -7360 -3520 -7360
WIRE -2720 -7360 -3056 -7360
WIRE -2528 -7360 -2720 -7360
WIRE -1920 -7360 -2528 -7360
WIRE -1584 -7360 -1920 -7360
WIRE -1392 -7360 -1584 -7360
WIRE -928 -7360 -1392 -7360
WIRE -592 -7360 -928 -7360
WIRE -400 -7360 -592 -7360
WIRE 192 -7360 -400 -7360
WIRE 528 -7360 192 -7360
WIRE 720 -7360 528 -7360
WIRE 1216 -7360 720 -7360
WIRE 1424 -7360 1216 -7360
WIRE 2800 -7360 1424 -7360
WIRE -3520 -7328 -3520 -7360
WIRE -2528 -7328 -2528 -7360
WIRE -1392 -7328 -1392 -7360
WIRE -400 -7328 -400 -7360
WIRE 720 -7328 720 -7360
WIRE -4048 -7312 -4048 -7360
WIRE -3056 -7312 -3056 -7360
WIRE -1920 -7312 -1920 -7360
WIRE -928 -7312 -928 -7360
WIRE 192 -7312 192 -7360
WIRE -3712 -7248 -3712 -7360
WIRE -2720 -7248 -2720 -7360
WIRE -1584 -7248 -1584 -7360
WIRE -592 -7248 -592 -7360
WIRE 528 -7248 528 -7360
WIRE -4048 -7200 -4048 -7232
WIRE -3776 -7200 -4048 -7200
WIRE -3056 -7200 -3056 -7232
WIRE -2784 -7200 -3056 -7200
WIRE -1920 -7200 -1920 -7232
WIRE -1648 -7200 -1920 -7200
WIRE -928 -7200 -928 -7232
WIRE -656 -7200 -928 -7200
WIRE 192 -7200 192 -7232
WIRE 464 -7200 192 -7200
WIRE 1424 -7200 1424 -7360
WIRE -4048 -7168 -4048 -7200
WIRE -3520 -7168 -3520 -7248
WIRE -3056 -7168 -3056 -7200
WIRE -2528 -7168 -2528 -7248
WIRE -1920 -7168 -1920 -7200
WIRE -1392 -7168 -1392 -7248
WIRE -928 -7168 -928 -7200
WIRE -400 -7168 -400 -7248
WIRE 192 -7168 192 -7200
WIRE 720 -7168 720 -7248
WIRE -3712 -7072 -3712 -7152
WIRE -2720 -7072 -2720 -7152
WIRE -1584 -7072 -1584 -7152
WIRE -592 -7072 -592 -7152
WIRE 528 -7072 528 -7152
WIRE -4048 -7040 -4048 -7088
WIRE -3056 -7040 -3056 -7088
WIRE -1920 -7040 -1920 -7088
WIRE -928 -7040 -928 -7088
WIRE 192 -7040 192 -7088
WIRE -4224 -6992 -4272 -6992
WIRE -4112 -6992 -4144 -6992
WIRE -3232 -6992 -3280 -6992
WIRE -3120 -6992 -3152 -6992
WIRE -2096 -6992 -2144 -6992
WIRE -1984 -6992 -2016 -6992
WIRE -1104 -6992 -1152 -6992
WIRE -992 -6992 -1024 -6992
WIRE 16 -6992 -32 -6992
WIRE 128 -6992 96 -6992
WIRE -3520 -6960 -3520 -7088
WIRE -2528 -6960 -2528 -7088
WIRE -1392 -6960 -1392 -7088
WIRE -400 -6960 -400 -7088
WIRE 720 -6960 720 -7088
WIRE -3712 -6944 -3712 -6992
WIRE -3568 -6944 -3712 -6944
WIRE -2720 -6944 -2720 -6992
WIRE -2576 -6944 -2720 -6944
WIRE -1584 -6944 -1584 -6992
WIRE -1440 -6944 -1584 -6944
WIRE -592 -6944 -592 -6992
WIRE -448 -6944 -592 -6944
WIRE 528 -6944 528 -6992
WIRE 672 -6944 528 -6944
WIRE -3712 -6912 -3712 -6944
WIRE -2720 -6912 -2720 -6944
WIRE -1584 -6912 -1584 -6944
WIRE -592 -6912 -592 -6944
WIRE 528 -6912 528 -6944
WIRE 1216 -6912 1216 -7360
WIRE 1424 -6896 1424 -7120
WIRE 1424 -6896 1264 -6896
WIRE -4048 -6864 -4048 -6944
WIRE -3056 -6864 -3056 -6944
WIRE -1920 -6864 -1920 -6944
WIRE -928 -6864 -928 -6944
WIRE 192 -6864 192 -6944
WIRE 1424 -6864 1424 -6896
WIRE -3712 -6768 -3712 -6832
WIRE -2720 -6768 -2720 -6832
WIRE -1584 -6768 -1584 -6832
WIRE -592 -6768 -592 -6832
WIRE 528 -6768 528 -6832
WIRE 720 -6768 720 -6864
WIRE 1216 -6768 1216 -6816
WIRE 1216 -6768 720 -6768
WIRE -3904 -6720 -3952 -6720
WIRE -3776 -6720 -3824 -6720
WIRE -2912 -6720 -2960 -6720
WIRE -2784 -6720 -2832 -6720
WIRE -1776 -6720 -1824 -6720
WIRE -1648 -6720 -1696 -6720
WIRE -784 -6720 -832 -6720
WIRE -656 -6720 -704 -6720
WIRE 336 -6720 288 -6720
WIRE 464 -6720 416 -6720
WIRE 1424 -6720 1424 -6784
WIRE 1216 -6672 1152 -6672
WIRE 1360 -6672 1296 -6672
WIRE -3712 -6608 -3712 -6672
WIRE -2720 -6608 -2720 -6672
WIRE -1584 -6608 -1584 -6672
WIRE -592 -6608 -592 -6672
WIRE 528 -6608 528 -6672
WIRE 1424 -6560 1424 -6624
WIRE -3712 -6496 -4048 -6496
WIRE -3520 -6496 -3520 -6864
WIRE -3520 -6496 -3712 -6496
WIRE -3056 -6496 -3520 -6496
WIRE -2720 -6496 -3056 -6496
WIRE -2528 -6496 -2528 -6864
WIRE -2528 -6496 -2720 -6496
WIRE -1920 -6496 -2528 -6496
WIRE -1584 -6496 -1920 -6496
WIRE -1392 -6496 -1392 -6864
WIRE -1392 -6496 -1584 -6496
WIRE -928 -6496 -1392 -6496
WIRE -592 -6496 -928 -6496
WIRE -400 -6496 -400 -6864
WIRE -400 -6496 -592 -6496
WIRE 192 -6496 -400 -6496
WIRE 528 -6496 192 -6496
WIRE 720 -6496 720 -6768
WIRE 720 -6496 528 -6496
WIRE 1216 -6496 720 -6496
WIRE 1424 -6496 1216 -6496
WIRE -3520 -6464 -3520 -6496
WIRE -2528 -6464 -2528 -6496
WIRE -1392 -6464 -1392 -6496
WIRE -400 -6464 -400 -6496
WIRE 720 -6464 720 -6496
WIRE -4048 -6448 -4048 -6496
WIRE -3056 -6448 -3056 -6496
WIRE -1920 -6448 -1920 -6496
WIRE -928 -6448 -928 -6496
WIRE 192 -6448 192 -6496
WIRE -3712 -6384 -3712 -6496
WIRE -2720 -6384 -2720 -6496
WIRE -1584 -6384 -1584 -6496
WIRE -592 -6384 -592 -6496
WIRE 528 -6384 528 -6496
WIRE -4048 -6336 -4048 -6368
WIRE -3776 -6336 -4048 -6336
WIRE -3056 -6336 -3056 -6368
WIRE -2784 -6336 -3056 -6336
WIRE -1920 -6336 -1920 -6368
WIRE -1648 -6336 -1920 -6336
WIRE -928 -6336 -928 -6368
WIRE -656 -6336 -928 -6336
WIRE 192 -6336 192 -6368
WIRE 464 -6336 192 -6336
WIRE 1424 -6336 1424 -6496
WIRE -4048 -6304 -4048 -6336
WIRE -3520 -6304 -3520 -6384
WIRE -3056 -6304 -3056 -6336
WIRE -2528 -6304 -2528 -6384
WIRE -1920 -6304 -1920 -6336
WIRE -1392 -6304 -1392 -6384
WIRE -928 -6304 -928 -6336
WIRE -400 -6304 -400 -6384
WIRE 192 -6304 192 -6336
WIRE 720 -6304 720 -6384
WIRE -3712 -6208 -3712 -6288
WIRE -2720 -6208 -2720 -6288
WIRE -1584 -6208 -1584 -6288
WIRE -592 -6208 -592 -6288
WIRE 528 -6208 528 -6288
WIRE -4048 -6176 -4048 -6224
WIRE -3056 -6176 -3056 -6224
WIRE -1920 -6176 -1920 -6224
WIRE -928 -6176 -928 -6224
WIRE 192 -6176 192 -6224
WIRE -4224 -6128 -4272 -6128
WIRE -4112 -6128 -4144 -6128
WIRE -3232 -6128 -3280 -6128
WIRE -3120 -6128 -3152 -6128
WIRE -2096 -6128 -2144 -6128
WIRE -1984 -6128 -2016 -6128
WIRE -1104 -6128 -1152 -6128
WIRE -992 -6128 -1024 -6128
WIRE 16 -6128 -32 -6128
WIRE 128 -6128 96 -6128
WIRE -3520 -6096 -3520 -6224
WIRE -2528 -6096 -2528 -6224
WIRE -1392 -6096 -1392 -6224
WIRE -400 -6096 -400 -6224
WIRE 720 -6096 720 -6224
WIRE -3712 -6080 -3712 -6128
WIRE -3568 -6080 -3712 -6080
WIRE -2720 -6080 -2720 -6128
WIRE -2576 -6080 -2720 -6080
WIRE -1584 -6080 -1584 -6128
WIRE -1440 -6080 -1584 -6080
WIRE -592 -6080 -592 -6128
WIRE -448 -6080 -592 -6080
WIRE 528 -6080 528 -6128
WIRE 672 -6080 528 -6080
WIRE -3712 -6048 -3712 -6080
WIRE -2720 -6048 -2720 -6080
WIRE -1584 -6048 -1584 -6080
WIRE -592 -6048 -592 -6080
WIRE 528 -6048 528 -6080
WIRE 1216 -6048 1216 -6496
WIRE 1424 -6032 1424 -6256
WIRE 1424 -6032 1264 -6032
WIRE -4048 -6000 -4048 -6080
WIRE -3056 -6000 -3056 -6080
WIRE -1920 -6000 -1920 -6080
WIRE -928 -6000 -928 -6080
WIRE -400 -6000 -400 -6016
WIRE 192 -6000 192 -6080
WIRE 1424 -6000 1424 -6032
WIRE -3712 -5904 -3712 -5968
WIRE -2720 -5904 -2720 -5968
WIRE -1584 -5904 -1584 -5968
WIRE -592 -5904 -592 -5968
WIRE 528 -5904 528 -5968
WIRE 720 -5904 720 -6000
WIRE 1216 -5904 1216 -5952
WIRE 1216 -5904 720 -5904
WIRE -3904 -5856 -3952 -5856
WIRE -3776 -5856 -3824 -5856
WIRE -2912 -5856 -2960 -5856
WIRE -2784 -5856 -2832 -5856
WIRE -1776 -5856 -1824 -5856
WIRE -1648 -5856 -1696 -5856
WIRE -784 -5856 -832 -5856
WIRE -656 -5856 -704 -5856
WIRE 336 -5856 288 -5856
WIRE 464 -5856 416 -5856
WIRE 1424 -5856 1424 -5920
WIRE 1216 -5808 1152 -5808
WIRE 1360 -5808 1296 -5808
WIRE -3712 -5744 -3712 -5808
WIRE -2720 -5744 -2720 -5808
WIRE -1584 -5744 -1584 -5808
WIRE -592 -5744 -592 -5808
WIRE 528 -5744 528 -5808
WIRE 1424 -5696 1424 -5760
WIRE -3712 -5568 -4048 -5568
WIRE -3520 -5568 -3520 -6000
WIRE -3520 -5568 -3712 -5568
WIRE -3056 -5568 -3520 -5568
WIRE -2720 -5568 -3056 -5568
WIRE -2528 -5568 -2528 -6000
WIRE -2528 -5568 -2720 -5568
WIRE -1920 -5568 -2528 -5568
WIRE -1584 -5568 -1920 -5568
WIRE -1392 -5568 -1392 -6000
WIRE -1392 -5568 -1584 -5568
WIRE -928 -5568 -1392 -5568
WIRE -592 -5568 -928 -5568
WIRE -400 -5568 -400 -6000
WIRE -400 -5568 -592 -5568
WIRE 192 -5568 -400 -5568
WIRE 528 -5568 192 -5568
WIRE 720 -5568 528 -5568
WIRE 1216 -5568 720 -5568
WIRE 1424 -5568 1216 -5568
WIRE -3520 -5536 -3520 -5568
WIRE -2528 -5536 -2528 -5568
WIRE -1392 -5536 -1392 -5568
WIRE -400 -5536 -400 -5568
WIRE 720 -5536 720 -5568
WIRE -4048 -5520 -4048 -5568
WIRE -3056 -5520 -3056 -5568
WIRE -1920 -5520 -1920 -5568
WIRE -928 -5520 -928 -5568
WIRE 192 -5520 192 -5568
WIRE -3712 -5456 -3712 -5568
WIRE -2720 -5456 -2720 -5568
WIRE -1584 -5456 -1584 -5568
WIRE -592 -5456 -592 -5568
WIRE 528 -5456 528 -5568
WIRE -4048 -5408 -4048 -5440
WIRE -3776 -5408 -4048 -5408
WIRE -3056 -5408 -3056 -5440
WIRE -2784 -5408 -3056 -5408
WIRE -1920 -5408 -1920 -5440
WIRE -1648 -5408 -1920 -5408
WIRE -928 -5408 -928 -5440
WIRE -656 -5408 -928 -5408
WIRE 192 -5408 192 -5440
WIRE 464 -5408 192 -5408
WIRE 1424 -5408 1424 -5568
WIRE -4048 -5376 -4048 -5408
WIRE -3520 -5376 -3520 -5456
WIRE -3056 -5376 -3056 -5408
WIRE -2528 -5376 -2528 -5456
WIRE -1920 -5376 -1920 -5408
WIRE -1392 -5376 -1392 -5456
WIRE -928 -5376 -928 -5408
WIRE -400 -5376 -400 -5456
WIRE 192 -5376 192 -5408
WIRE 720 -5376 720 -5456
WIRE -3712 -5280 -3712 -5360
WIRE -2720 -5280 -2720 -5360
WIRE -1584 -5280 -1584 -5360
WIRE -592 -5280 -592 -5360
WIRE 528 -5280 528 -5360
WIRE -4048 -5248 -4048 -5296
WIRE -3056 -5248 -3056 -5296
WIRE -1920 -5248 -1920 -5296
WIRE -928 -5248 -928 -5296
WIRE 192 -5248 192 -5296
WIRE -4224 -5200 -4272 -5200
WIRE -4112 -5200 -4144 -5200
WIRE -3232 -5200 -3280 -5200
WIRE -3120 -5200 -3152 -5200
WIRE -2096 -5200 -2144 -5200
WIRE -1984 -5200 -2016 -5200
WIRE -1104 -5200 -1152 -5200
WIRE -992 -5200 -1024 -5200
WIRE 16 -5200 -32 -5200
WIRE 128 -5200 96 -5200
WIRE -3520 -5168 -3520 -5296
WIRE -2528 -5168 -2528 -5296
WIRE -1392 -5168 -1392 -5296
WIRE -400 -5168 -400 -5296
WIRE 720 -5168 720 -5296
WIRE -3712 -5152 -3712 -5200
WIRE -3568 -5152 -3712 -5152
WIRE -2720 -5152 -2720 -5200
WIRE -2576 -5152 -2720 -5152
WIRE -1584 -5152 -1584 -5200
WIRE -1440 -5152 -1584 -5152
WIRE -592 -5152 -592 -5200
WIRE -448 -5152 -592 -5152
WIRE 528 -5152 528 -5200
WIRE 672 -5152 528 -5152
WIRE -3712 -5120 -3712 -5152
WIRE -2720 -5120 -2720 -5152
WIRE -1584 -5120 -1584 -5152
WIRE -592 -5120 -592 -5152
WIRE 528 -5120 528 -5152
WIRE 1216 -5120 1216 -5568
WIRE 1424 -5104 1424 -5328
WIRE 1424 -5104 1264 -5104
WIRE -4048 -5072 -4048 -5152
WIRE -3056 -5072 -3056 -5152
WIRE -1920 -5072 -1920 -5152
WIRE -928 -5072 -928 -5152
WIRE 192 -5072 192 -5152
WIRE 1424 -5072 1424 -5104
WIRE -3712 -4976 -3712 -5040
WIRE -2720 -4976 -2720 -5040
WIRE -1584 -4976 -1584 -5040
WIRE -592 -4976 -592 -5040
WIRE 528 -4976 528 -5040
WIRE 720 -4976 720 -5072
WIRE 1216 -4976 1216 -5024
WIRE 1216 -4976 720 -4976
WIRE -3904 -4928 -3952 -4928
WIRE -3776 -4928 -3824 -4928
WIRE -2912 -4928 -2960 -4928
WIRE -2784 -4928 -2832 -4928
WIRE -1776 -4928 -1824 -4928
WIRE -1648 -4928 -1696 -4928
WIRE -784 -4928 -832 -4928
WIRE -656 -4928 -704 -4928
WIRE 336 -4928 288 -4928
WIRE 464 -4928 416 -4928
WIRE 1424 -4928 1424 -4992
WIRE 1216 -4880 1152 -4880
WIRE 1360 -4880 1296 -4880
WIRE -3712 -4816 -3712 -4880
WIRE -2720 -4816 -2720 -4880
WIRE -1584 -4816 -1584 -4880
WIRE -592 -4816 -592 -4880
WIRE 528 -4816 528 -4880
WIRE 1424 -4768 1424 -4832
WIRE -3712 -4704 -4048 -4704
WIRE -3520 -4704 -3520 -5072
WIRE -3520 -4704 -3712 -4704
WIRE -3056 -4704 -3520 -4704
WIRE -2720 -4704 -3056 -4704
WIRE -2528 -4704 -2528 -5072
WIRE -2528 -4704 -2720 -4704
WIRE -1920 -4704 -2528 -4704
WIRE -1584 -4704 -1920 -4704
WIRE -1392 -4704 -1392 -5072
WIRE -1392 -4704 -1584 -4704
WIRE -928 -4704 -1392 -4704
WIRE -592 -4704 -928 -4704
WIRE -400 -4704 -400 -5072
WIRE -400 -4704 -592 -4704
WIRE 192 -4704 -400 -4704
WIRE 528 -4704 192 -4704
WIRE 720 -4704 720 -4976
WIRE 720 -4704 528 -4704
WIRE 1216 -4704 720 -4704
WIRE 1424 -4704 1216 -4704
WIRE -3520 -4672 -3520 -4704
WIRE -2528 -4672 -2528 -4704
WIRE -1392 -4672 -1392 -4704
WIRE -400 -4672 -400 -4704
WIRE 720 -4672 720 -4704
WIRE -4048 -4656 -4048 -4704
WIRE -3056 -4656 -3056 -4704
WIRE -1920 -4656 -1920 -4704
WIRE -928 -4656 -928 -4704
WIRE 192 -4656 192 -4704
WIRE -3712 -4592 -3712 -4704
WIRE -2720 -4592 -2720 -4704
WIRE -1584 -4592 -1584 -4704
WIRE -592 -4592 -592 -4704
WIRE 528 -4592 528 -4704
WIRE -4048 -4544 -4048 -4576
WIRE -3776 -4544 -4048 -4544
WIRE -3056 -4544 -3056 -4576
WIRE -2784 -4544 -3056 -4544
WIRE -1920 -4544 -1920 -4576
WIRE -1648 -4544 -1920 -4544
WIRE -928 -4544 -928 -4576
WIRE -656 -4544 -928 -4544
WIRE 192 -4544 192 -4576
WIRE 464 -4544 192 -4544
WIRE 1424 -4544 1424 -4704
WIRE -4048 -4512 -4048 -4544
WIRE -3520 -4512 -3520 -4592
WIRE -3056 -4512 -3056 -4544
WIRE -2528 -4512 -2528 -4592
WIRE -1920 -4512 -1920 -4544
WIRE -1392 -4512 -1392 -4592
WIRE -928 -4512 -928 -4544
WIRE -400 -4512 -400 -4592
WIRE 192 -4512 192 -4544
WIRE 720 -4512 720 -4592
WIRE -3712 -4416 -3712 -4496
WIRE -2720 -4416 -2720 -4496
WIRE -1584 -4416 -1584 -4496
WIRE -592 -4416 -592 -4496
WIRE 528 -4416 528 -4496
WIRE -4048 -4384 -4048 -4432
WIRE -3056 -4384 -3056 -4432
WIRE -1920 -4384 -1920 -4432
WIRE -928 -4384 -928 -4432
WIRE 192 -4384 192 -4432
WIRE -4224 -4336 -4272 -4336
WIRE -4112 -4336 -4144 -4336
WIRE -3232 -4336 -3280 -4336
WIRE -3120 -4336 -3152 -4336
WIRE -2096 -4336 -2144 -4336
WIRE -1984 -4336 -2016 -4336
WIRE -1104 -4336 -1152 -4336
WIRE -992 -4336 -1024 -4336
WIRE 16 -4336 -32 -4336
WIRE 128 -4336 96 -4336
WIRE -3520 -4304 -3520 -4432
WIRE -2528 -4304 -2528 -4432
WIRE -1392 -4304 -1392 -4432
WIRE -400 -4304 -400 -4432
WIRE 720 -4304 720 -4432
WIRE -3712 -4288 -3712 -4336
WIRE -3568 -4288 -3712 -4288
WIRE -2720 -4288 -2720 -4336
WIRE -2576 -4288 -2720 -4288
WIRE -1584 -4288 -1584 -4336
WIRE -1440 -4288 -1584 -4288
WIRE -592 -4288 -592 -4336
WIRE -448 -4288 -592 -4288
WIRE 528 -4288 528 -4336
WIRE 672 -4288 528 -4288
WIRE -3712 -4256 -3712 -4288
WIRE -2720 -4256 -2720 -4288
WIRE -1584 -4256 -1584 -4288
WIRE -592 -4256 -592 -4288
WIRE 528 -4256 528 -4288
WIRE 1216 -4256 1216 -4704
WIRE 1424 -4240 1424 -4464
WIRE 1424 -4240 1264 -4240
WIRE -4048 -4208 -4048 -4288
WIRE -3056 -4208 -3056 -4288
WIRE -1920 -4208 -1920 -4288
WIRE -928 -4208 -928 -4288
WIRE 192 -4208 192 -4288
WIRE 1424 -4208 1424 -4240
WIRE -3712 -4112 -3712 -4176
WIRE -2720 -4112 -2720 -4176
WIRE -1584 -4112 -1584 -4176
WIRE -592 -4112 -592 -4176
WIRE 528 -4112 528 -4176
WIRE 720 -4112 720 -4208
WIRE 1216 -4112 1216 -4160
WIRE 1216 -4112 720 -4112
WIRE -3904 -4064 -3952 -4064
WIRE -3776 -4064 -3824 -4064
WIRE -2912 -4064 -2960 -4064
WIRE -2784 -4064 -2832 -4064
WIRE -1776 -4064 -1824 -4064
WIRE -1648 -4064 -1696 -4064
WIRE -784 -4064 -832 -4064
WIRE -656 -4064 -704 -4064
WIRE 336 -4064 288 -4064
WIRE 464 -4064 416 -4064
WIRE 1424 -4064 1424 -4128
WIRE 1216 -4016 1152 -4016
WIRE 1360 -4016 1296 -4016
WIRE -3712 -3952 -3712 -4016
WIRE -2720 -3952 -2720 -4016
WIRE -1584 -3952 -1584 -4016
WIRE -592 -3952 -592 -4016
WIRE 528 -3952 528 -4016
WIRE 1424 -3904 1424 -3968
WIRE -3712 -3840 -4048 -3840
WIRE -3520 -3840 -3520 -4208
WIRE -3520 -3840 -3712 -3840
WIRE -3056 -3840 -3520 -3840
WIRE -2720 -3840 -3056 -3840
WIRE -2528 -3840 -2528 -4208
WIRE -2528 -3840 -2720 -3840
WIRE -1920 -3840 -2512 -3840
WIRE -1584 -3840 -1920 -3840
WIRE -1392 -3840 -1392 -4208
WIRE -1392 -3840 -1584 -3840
WIRE -928 -3840 -1392 -3840
WIRE -592 -3840 -928 -3840
WIRE -400 -3840 -400 -4208
WIRE -400 -3840 -592 -3840
WIRE 192 -3840 -400 -3840
WIRE 528 -3840 192 -3840
WIRE 720 -3840 720 -4112
WIRE 720 -3840 528 -3840
WIRE 1216 -3840 720 -3840
WIRE 1424 -3840 1216 -3840
WIRE -3520 -3808 -3520 -3840
WIRE -2528 -3808 -2528 -3840
WIRE -1392 -3808 -1392 -3840
WIRE -400 -3808 -400 -3840
WIRE 720 -3808 720 -3840
WIRE -4048 -3792 -4048 -3840
WIRE -3056 -3792 -3056 -3840
WIRE -1920 -3792 -1920 -3840
WIRE -928 -3792 -928 -3840
WIRE 192 -3792 192 -3840
WIRE -3712 -3728 -3712 -3840
WIRE -2720 -3728 -2720 -3840
WIRE -1584 -3728 -1584 -3840
WIRE -592 -3728 -592 -3840
WIRE 528 -3728 528 -3840
WIRE -4048 -3680 -4048 -3712
WIRE -3776 -3680 -4048 -3680
WIRE -3056 -3680 -3056 -3712
WIRE -2784 -3680 -3056 -3680
WIRE -1920 -3680 -1920 -3712
WIRE -1648 -3680 -1920 -3680
WIRE -928 -3680 -928 -3712
WIRE -656 -3680 -928 -3680
WIRE 192 -3680 192 -3712
WIRE 464 -3680 192 -3680
WIRE 1424 -3680 1424 -3840
WIRE -4048 -3648 -4048 -3680
WIRE -3520 -3648 -3520 -3728
WIRE -3056 -3648 -3056 -3680
WIRE -2528 -3648 -2528 -3728
WIRE -1920 -3648 -1920 -3680
WIRE -1392 -3648 -1392 -3728
WIRE -928 -3648 -928 -3680
WIRE -400 -3648 -400 -3728
WIRE 192 -3648 192 -3680
WIRE 720 -3648 720 -3728
WIRE -3712 -3552 -3712 -3632
WIRE -2720 -3552 -2720 -3632
WIRE -1584 -3552 -1584 -3632
WIRE -592 -3552 -592 -3632
WIRE 528 -3552 528 -3632
WIRE -4048 -3520 -4048 -3568
WIRE -3056 -3520 -3056 -3568
WIRE -1920 -3520 -1920 -3568
WIRE -928 -3520 -928 -3568
WIRE 192 -3520 192 -3568
WIRE -4224 -3472 -4272 -3472
WIRE -4112 -3472 -4144 -3472
WIRE -3232 -3472 -3280 -3472
WIRE -3120 -3472 -3152 -3472
WIRE -2096 -3472 -2144 -3472
WIRE -1984 -3472 -2016 -3472
WIRE -1104 -3472 -1152 -3472
WIRE -992 -3472 -1024 -3472
WIRE 16 -3472 -32 -3472
WIRE 128 -3472 96 -3472
WIRE -3520 -3440 -3520 -3568
WIRE -2528 -3440 -2528 -3568
WIRE -1392 -3440 -1392 -3568
WIRE -400 -3440 -400 -3568
WIRE 720 -3440 720 -3568
WIRE -3712 -3424 -3712 -3472
WIRE -3568 -3424 -3712 -3424
WIRE -2720 -3424 -2720 -3472
WIRE -2576 -3424 -2720 -3424
WIRE -1584 -3424 -1584 -3472
WIRE -1440 -3424 -1584 -3424
WIRE -592 -3424 -592 -3472
WIRE -448 -3424 -592 -3424
WIRE 528 -3424 528 -3472
WIRE 672 -3424 528 -3424
WIRE -3712 -3392 -3712 -3424
WIRE -2720 -3392 -2720 -3424
WIRE -1584 -3392 -1584 -3424
WIRE -592 -3392 -592 -3424
WIRE 528 -3392 528 -3424
WIRE 1216 -3392 1216 -3840
WIRE 1424 -3376 1424 -3600
WIRE 1424 -3376 1264 -3376
WIRE -4048 -3344 -4048 -3424
WIRE -3056 -3344 -3056 -3424
WIRE -1920 -3344 -1920 -3424
WIRE -928 -3344 -928 -3424
WIRE 192 -3344 192 -3424
WIRE 1424 -3344 1424 -3376
WIRE -3712 -3248 -3712 -3312
WIRE -2720 -3248 -2720 -3312
WIRE -1584 -3248 -1584 -3312
WIRE -592 -3248 -592 -3312
WIRE 528 -3248 528 -3312
WIRE 720 -3248 720 -3344
WIRE 1216 -3248 1216 -3296
WIRE 1216 -3248 720 -3248
WIRE -3904 -3200 -3952 -3200
WIRE -3776 -3200 -3824 -3200
WIRE -2912 -3200 -2960 -3200
WIRE -2784 -3200 -2832 -3200
WIRE -1776 -3200 -1824 -3200
WIRE -1648 -3200 -1696 -3200
WIRE -784 -3200 -832 -3200
WIRE -656 -3200 -704 -3200
WIRE 336 -3200 288 -3200
WIRE 464 -3200 416 -3200
WIRE 1424 -3200 1424 -3264
WIRE 1216 -3152 1152 -3152
WIRE 1360 -3152 1296 -3152
WIRE -3712 -3088 -3712 -3152
WIRE -2720 -3088 -2720 -3152
WIRE -1584 -3088 -1584 -3152
WIRE -592 -3088 -592 -3152
WIRE 528 -3088 528 -3152
WIRE 1424 -3040 1424 -3104
WIRE -3712 -2960 -4048 -2960
WIRE -3520 -2960 -3520 -3344
WIRE -3520 -2960 -3712 -2960
WIRE -3056 -2960 -3520 -2960
WIRE -2720 -2960 -3056 -2960
WIRE -2528 -2960 -2528 -3344
WIRE -2528 -2960 -2720 -2960
WIRE -1920 -2960 -2528 -2960
WIRE -1584 -2960 -1920 -2960
WIRE -1392 -2960 -1392 -3344
WIRE -1392 -2960 -1584 -2960
WIRE -928 -2960 -1392 -2960
WIRE -592 -2960 -928 -2960
WIRE -400 -2960 -400 -3344
WIRE -400 -2960 -592 -2960
WIRE 192 -2960 -400 -2960
WIRE 528 -2960 192 -2960
WIRE 720 -2960 720 -3248
WIRE 720 -2960 528 -2960
WIRE 1216 -2960 720 -2960
WIRE 1424 -2960 1216 -2960
WIRE -3520 -2928 -3520 -2960
WIRE -2528 -2928 -2528 -2960
WIRE -1392 -2928 -1392 -2960
WIRE -400 -2928 -400 -2960
WIRE 720 -2928 720 -2960
WIRE -4048 -2912 -4048 -2960
WIRE -3056 -2912 -3056 -2960
WIRE -1920 -2912 -1920 -2960
WIRE -928 -2912 -928 -2960
WIRE 192 -2912 192 -2960
WIRE -3712 -2848 -3712 -2960
WIRE -2720 -2848 -2720 -2960
WIRE -1584 -2848 -1584 -2960
WIRE -592 -2848 -592 -2960
WIRE 528 -2848 528 -2960
WIRE -4048 -2800 -4048 -2832
WIRE -3776 -2800 -4048 -2800
WIRE -3056 -2800 -3056 -2832
WIRE -2784 -2800 -3056 -2800
WIRE -1920 -2800 -1920 -2832
WIRE -1648 -2800 -1920 -2800
WIRE -928 -2800 -928 -2832
WIRE -656 -2800 -928 -2800
WIRE 192 -2800 192 -2832
WIRE 464 -2800 192 -2800
WIRE 1424 -2800 1424 -2960
WIRE -4048 -2768 -4048 -2800
WIRE -3520 -2768 -3520 -2848
WIRE -3056 -2768 -3056 -2800
WIRE -2528 -2768 -2528 -2848
WIRE -1920 -2768 -1920 -2800
WIRE -1392 -2768 -1392 -2848
WIRE -928 -2768 -928 -2800
WIRE -400 -2768 -400 -2848
WIRE 192 -2768 192 -2800
WIRE 720 -2768 720 -2848
WIRE -3712 -2672 -3712 -2752
WIRE -2720 -2672 -2720 -2752
WIRE -1584 -2672 -1584 -2752
WIRE -592 -2672 -592 -2752
WIRE 528 -2672 528 -2752
WIRE -4048 -2640 -4048 -2688
WIRE -3056 -2640 -3056 -2688
WIRE -1920 -2640 -1920 -2688
WIRE -928 -2640 -928 -2688
WIRE 192 -2640 192 -2688
WIRE -4224 -2592 -4272 -2592
WIRE -4112 -2592 -4144 -2592
WIRE -3232 -2592 -3280 -2592
WIRE -3120 -2592 -3152 -2592
WIRE -2096 -2592 -2144 -2592
WIRE -1984 -2592 -2016 -2592
WIRE -1104 -2592 -1152 -2592
WIRE -992 -2592 -1024 -2592
WIRE 16 -2592 -32 -2592
WIRE 128 -2592 96 -2592
WIRE -3520 -2560 -3520 -2688
WIRE -2528 -2560 -2528 -2688
WIRE -1392 -2560 -1392 -2688
WIRE -400 -2560 -400 -2688
WIRE 720 -2560 720 -2688
WIRE -3712 -2544 -3712 -2592
WIRE -3568 -2544 -3712 -2544
WIRE -2720 -2544 -2720 -2592
WIRE -2576 -2544 -2720 -2544
WIRE -1584 -2544 -1584 -2592
WIRE -1440 -2544 -1584 -2544
WIRE -592 -2544 -592 -2592
WIRE -448 -2544 -592 -2544
WIRE 528 -2544 528 -2592
WIRE 672 -2544 528 -2544
WIRE -3712 -2512 -3712 -2544
WIRE -2720 -2512 -2720 -2544
WIRE -1584 -2512 -1584 -2544
WIRE -592 -2512 -592 -2544
WIRE 528 -2512 528 -2544
WIRE 1216 -2512 1216 -2960
WIRE 1424 -2496 1424 -2720
WIRE 1424 -2496 1264 -2496
WIRE -4048 -2464 -4048 -2544
WIRE -3056 -2464 -3056 -2544
WIRE -1920 -2464 -1920 -2544
WIRE -928 -2464 -928 -2544
WIRE 192 -2464 192 -2544
WIRE 1424 -2464 1424 -2496
WIRE -3712 -2368 -3712 -2432
WIRE -2720 -2368 -2720 -2432
WIRE -1584 -2368 -1584 -2432
WIRE -592 -2368 -592 -2432
WIRE 528 -2368 528 -2432
WIRE 720 -2368 720 -2464
WIRE 1216 -2368 1216 -2416
WIRE 1216 -2368 720 -2368
WIRE -3904 -2320 -3952 -2320
WIRE -3776 -2320 -3824 -2320
WIRE -2912 -2320 -2960 -2320
WIRE -2784 -2320 -2832 -2320
WIRE -1776 -2320 -1824 -2320
WIRE -1648 -2320 -1696 -2320
WIRE -784 -2320 -832 -2320
WIRE -656 -2320 -704 -2320
WIRE 336 -2320 288 -2320
WIRE 464 -2320 416 -2320
WIRE 1424 -2320 1424 -2384
WIRE 1216 -2272 1152 -2272
WIRE 1360 -2272 1296 -2272
WIRE -3712 -2208 -3712 -2272
WIRE -2720 -2208 -2720 -2272
WIRE -1584 -2208 -1584 -2272
WIRE -592 -2208 -592 -2272
WIRE 528 -2208 528 -2272
WIRE 1424 -2160 1424 -2224
WIRE -3712 -2096 -4048 -2096
WIRE -3520 -2096 -3520 -2464
WIRE -3520 -2096 -3712 -2096
WIRE -3056 -2096 -3520 -2096
WIRE -2720 -2096 -3056 -2096
WIRE -2528 -2096 -2528 -2464
WIRE -2528 -2096 -2720 -2096
WIRE -1920 -2096 -2528 -2096
WIRE -1584 -2096 -1920 -2096
WIRE -1392 -2096 -1392 -2464
WIRE -1392 -2096 -1584 -2096
WIRE -928 -2096 -1392 -2096
WIRE -592 -2096 -928 -2096
WIRE -400 -2096 -400 -2464
WIRE -400 -2096 -592 -2096
WIRE 192 -2096 -400 -2096
WIRE 528 -2096 192 -2096
WIRE 720 -2096 720 -2368
WIRE 720 -2096 528 -2096
WIRE 1216 -2096 720 -2096
WIRE 1424 -2096 1216 -2096
WIRE -3520 -2064 -3520 -2096
WIRE -2528 -2064 -2528 -2096
WIRE -1392 -2064 -1392 -2096
WIRE -400 -2064 -400 -2096
WIRE 720 -2064 720 -2096
WIRE -4048 -2048 -4048 -2096
WIRE -3056 -2048 -3056 -2096
WIRE -1920 -2048 -1920 -2096
WIRE -928 -2048 -928 -2096
WIRE 192 -2048 192 -2096
WIRE -3712 -1984 -3712 -2096
WIRE -2720 -1984 -2720 -2096
WIRE -1584 -1984 -1584 -2096
WIRE -592 -1984 -592 -2096
WIRE 528 -1984 528 -2096
WIRE -4048 -1936 -4048 -1968
WIRE -3776 -1936 -4048 -1936
WIRE -3056 -1936 -3056 -1968
WIRE -2784 -1936 -3056 -1936
WIRE -1920 -1936 -1920 -1968
WIRE -1648 -1936 -1920 -1936
WIRE -928 -1936 -928 -1968
WIRE -656 -1936 -928 -1936
WIRE 192 -1936 192 -1968
WIRE 464 -1936 192 -1936
WIRE 1424 -1936 1424 -2096
WIRE -4048 -1904 -4048 -1936
WIRE -3520 -1904 -3520 -1984
WIRE -3056 -1904 -3056 -1936
WIRE -2528 -1904 -2528 -1984
WIRE -1920 -1904 -1920 -1936
WIRE -1392 -1904 -1392 -1984
WIRE -928 -1904 -928 -1936
WIRE -400 -1904 -400 -1984
WIRE 192 -1904 192 -1936
WIRE 720 -1904 720 -1984
WIRE -3712 -1808 -3712 -1888
WIRE -2720 -1808 -2720 -1888
WIRE -1584 -1808 -1584 -1888
WIRE -592 -1808 -592 -1888
WIRE 528 -1808 528 -1888
WIRE -4048 -1776 -4048 -1824
WIRE -3056 -1776 -3056 -1824
WIRE -1920 -1776 -1920 -1824
WIRE -928 -1776 -928 -1824
WIRE 192 -1776 192 -1824
WIRE -4224 -1728 -4272 -1728
WIRE -4112 -1728 -4144 -1728
WIRE -3232 -1728 -3280 -1728
WIRE -3120 -1728 -3152 -1728
WIRE -2096 -1728 -2144 -1728
WIRE -1984 -1728 -2016 -1728
WIRE -1104 -1728 -1152 -1728
WIRE -992 -1728 -1024 -1728
WIRE 16 -1728 -32 -1728
WIRE 128 -1728 96 -1728
WIRE -3520 -1696 -3520 -1824
WIRE -2528 -1696 -2528 -1824
WIRE -1392 -1696 -1392 -1824
WIRE -400 -1696 -400 -1824
WIRE 720 -1696 720 -1824
WIRE -3712 -1680 -3712 -1728
WIRE -3568 -1680 -3712 -1680
WIRE -2720 -1680 -2720 -1728
WIRE -2576 -1680 -2720 -1680
WIRE -1584 -1680 -1584 -1728
WIRE -1440 -1680 -1584 -1680
WIRE -592 -1680 -592 -1728
WIRE -448 -1680 -592 -1680
WIRE 528 -1680 528 -1728
WIRE 672 -1680 528 -1680
WIRE -3712 -1648 -3712 -1680
WIRE -2720 -1648 -2720 -1680
WIRE -1584 -1648 -1584 -1680
WIRE -592 -1648 -592 -1680
WIRE 528 -1648 528 -1680
WIRE 1216 -1648 1216 -2096
WIRE 1424 -1632 1424 -1856
WIRE 1424 -1632 1264 -1632
WIRE -4048 -1600 -4048 -1680
WIRE -3056 -1600 -3056 -1680
WIRE -1920 -1600 -1920 -1680
WIRE -928 -1600 -928 -1680
WIRE 192 -1600 192 -1680
WIRE 1424 -1600 1424 -1632
WIRE 2800 -1600 2800 -7360
WIRE 2800 -1552 2800 -1600
WIRE -3712 -1504 -3712 -1568
WIRE -2720 -1504 -2720 -1568
WIRE -1584 -1504 -1584 -1568
WIRE -592 -1504 -592 -1568
WIRE 528 -1504 528 -1568
WIRE 720 -1504 720 -1600
WIRE 1216 -1504 1216 -1552
WIRE 1216 -1504 720 -1504
WIRE -3904 -1456 -3952 -1456
WIRE -3776 -1456 -3824 -1456
WIRE -2912 -1456 -2960 -1456
WIRE -2784 -1456 -2832 -1456
WIRE -1776 -1456 -1824 -1456
WIRE -1648 -1456 -1696 -1456
WIRE -784 -1456 -832 -1456
WIRE -656 -1456 -704 -1456
WIRE 336 -1456 288 -1456
WIRE 464 -1456 416 -1456
WIRE 1424 -1456 1424 -1520
WIRE 1216 -1408 1152 -1408
WIRE 1360 -1408 1296 -1408
WIRE -3712 -1344 -3712 -1408
WIRE -2720 -1344 -2720 -1408
WIRE -1584 -1344 -1584 -1408
WIRE -592 -1344 -592 -1408
WIRE 528 -1344 528 -1408
WIRE 1424 -1296 1424 -1360
WIRE -3712 -1232 -4048 -1232
WIRE -3520 -1232 -3520 -1600
WIRE -3520 -1232 -3712 -1232
WIRE -3056 -1232 -3520 -1232
WIRE -2720 -1232 -3056 -1232
WIRE -2528 -1232 -2528 -1600
WIRE -2528 -1232 -2720 -1232
WIRE -1920 -1232 -2528 -1232
WIRE -1584 -1232 -1920 -1232
WIRE -1392 -1232 -1392 -1600
WIRE -1392 -1232 -1584 -1232
WIRE -928 -1232 -1392 -1232
WIRE -592 -1232 -928 -1232
WIRE -400 -1232 -400 -1600
WIRE -400 -1232 -592 -1232
WIRE 192 -1232 -400 -1232
WIRE 528 -1232 192 -1232
WIRE 720 -1232 720 -1504
WIRE 720 -1232 528 -1232
WIRE 1216 -1232 720 -1232
WIRE 1424 -1232 1216 -1232
WIRE -3520 -1200 -3520 -1232
WIRE -2528 -1200 -2528 -1232
WIRE -1392 -1200 -1392 -1232
WIRE -400 -1200 -400 -1232
WIRE 720 -1200 720 -1232
WIRE -4048 -1184 -4048 -1232
WIRE -3056 -1184 -3056 -1232
WIRE -1920 -1184 -1920 -1232
WIRE -928 -1184 -928 -1232
WIRE 192 -1184 192 -1232
WIRE -3712 -1120 -3712 -1232
WIRE -2720 -1120 -2720 -1232
WIRE -1584 -1120 -1584 -1232
WIRE -592 -1120 -592 -1232
WIRE 528 -1120 528 -1232
WIRE -4048 -1072 -4048 -1104
WIRE -3776 -1072 -4048 -1072
WIRE -3056 -1072 -3056 -1104
WIRE -2784 -1072 -3056 -1072
WIRE -1920 -1072 -1920 -1104
WIRE -1648 -1072 -1920 -1072
WIRE -928 -1072 -928 -1104
WIRE -656 -1072 -928 -1072
WIRE 192 -1072 192 -1104
WIRE 464 -1072 192 -1072
WIRE 1424 -1072 1424 -1232
WIRE -4048 -1040 -4048 -1072
WIRE -3520 -1040 -3520 -1120
WIRE -3056 -1040 -3056 -1072
WIRE -2528 -1040 -2528 -1120
WIRE -1920 -1040 -1920 -1072
WIRE -1392 -1040 -1392 -1120
WIRE -928 -1040 -928 -1072
WIRE -400 -1040 -400 -1120
WIRE 192 -1040 192 -1072
WIRE 720 -1040 720 -1120
WIRE -3712 -944 -3712 -1024
WIRE -2720 -944 -2720 -1024
WIRE -1584 -944 -1584 -1024
WIRE -592 -944 -592 -1024
WIRE 528 -944 528 -1024
WIRE -4048 -912 -4048 -960
WIRE -3056 -912 -3056 -960
WIRE -1920 -912 -1920 -960
WIRE -928 -912 -928 -960
WIRE 192 -912 192 -960
WIRE -4224 -864 -4272 -864
WIRE -4112 -864 -4144 -864
WIRE -3232 -864 -3280 -864
WIRE -3120 -864 -3152 -864
WIRE -2096 -864 -2144 -864
WIRE -1984 -864 -2016 -864
WIRE -1104 -864 -1152 -864
WIRE -992 -864 -1024 -864
WIRE 16 -864 -32 -864
WIRE 128 -864 96 -864
WIRE 1216 -864 1216 -1232
WIRE -3520 -832 -3520 -960
WIRE -2528 -832 -2528 -960
WIRE -1392 -832 -1392 -960
WIRE -400 -832 -400 -960
WIRE 720 -832 720 -960
WIRE -3712 -816 -3712 -864
WIRE -3568 -816 -3712 -816
WIRE -2720 -816 -2720 -864
WIRE -2576 -816 -2720 -816
WIRE -1584 -816 -1584 -864
WIRE -1440 -816 -1584 -816
WIRE -592 -816 -592 -864
WIRE -448 -816 -592 -816
WIRE 528 -816 528 -864
WIRE 672 -816 528 -816
WIRE -3712 -784 -3712 -816
WIRE -2720 -784 -2720 -816
WIRE -1584 -784 -1584 -816
WIRE -592 -784 -592 -816
WIRE 528 -784 528 -816
WIRE 1216 -784 1216 -864
WIRE 1312 -768 1264 -768
WIRE 1424 -768 1424 -992
WIRE 1424 -768 1312 -768
WIRE -4048 -736 -4048 -816
WIRE -3056 -736 -3056 -816
WIRE -1920 -736 -1920 -816
WIRE -928 -736 -928 -816
WIRE 192 -736 192 -816
WIRE 1424 -736 1424 -768
WIRE -3712 -640 -3712 -704
WIRE -2720 -640 -2720 -704
WIRE -1584 -640 -1584 -704
WIRE -592 -640 -592 -704
WIRE 528 -640 528 -704
WIRE 720 -640 720 -736
WIRE 1216 -640 1216 -688
WIRE 1216 -640 720 -640
WIRE -3904 -592 -3952 -592
WIRE -3776 -592 -3824 -592
WIRE -2912 -592 -2960 -592
WIRE -2784 -592 -2832 -592
WIRE -1776 -592 -1824 -592
WIRE -1648 -592 -1696 -592
WIRE -784 -592 -832 -592
WIRE -656 -592 -704 -592
WIRE 336 -592 288 -592
WIRE 464 -592 416 -592
WIRE 1424 -592 1424 -656
WIRE 1216 -544 1152 -544
WIRE 1360 -544 1296 -544
WIRE -3712 -480 -3712 -544
WIRE -2720 -480 -2720 -544
WIRE -1584 -480 -1584 -544
WIRE -592 -480 -592 -544
WIRE 528 -480 528 -544
WIRE 1424 -432 1424 -496
WIRE -3712 -368 -4048 -368
WIRE -3520 -368 -3520 -736
WIRE -3520 -368 -3712 -368
WIRE -3056 -368 -3520 -368
WIRE -2720 -368 -3056 -368
WIRE -2528 -368 -2528 -736
WIRE -2528 -368 -2720 -368
WIRE -1920 -368 -2528 -368
WIRE -1584 -368 -1920 -368
WIRE -1392 -368 -1392 -736
WIRE -1392 -368 -1584 -368
WIRE -928 -368 -1392 -368
WIRE -592 -368 -928 -368
WIRE -400 -368 -400 -736
WIRE -400 -368 -592 -368
WIRE -160 -368 -400 -368
WIRE 192 -368 -80 -368
WIRE 528 -368 192 -368
WIRE 720 -368 720 -640
WIRE 720 -368 528 -368
WIRE 1248 -368 720 -368
WIRE 1424 -368 1248 -368
WIRE -3520 -304 -3520 -368
WIRE -2528 -304 -2528 -368
WIRE -1392 -304 -1392 -368