Version 4.1
SHEET 1 7672 2128
WIRE -1296 -4512 -1632 -4512
WIRE -896 -4512 -1296 -4512
WIRE 192 -4512 -896 -4512
WIRE 528 -4512 192 -4512
WIRE 912 -4512 528 -4512
WIRE 1712 -4512 912 -4512
WIRE 2080 -4512 1712 -4512
WIRE 2992 -4512 2080 -4512
WIRE -896 -4480 -896 -4512
WIRE 912 -4480 912 -4512
WIRE -1632 -4464 -1632 -4512
WIRE 192 -4464 192 -4512
WIRE -1296 -4400 -1296 -4512
WIRE 528 -4400 528 -4512
WIRE -1632 -4352 -1632 -4384
WIRE -1360 -4352 -1632 -4352
WIRE 192 -4352 192 -4384
WIRE 464 -4352 192 -4352
WIRE 2080 -4352 2080 -4512
WIRE -1632 -4320 -1632 -4352
WIRE -896 -4320 -896 -4400
WIRE 192 -4320 192 -4352
WIRE 912 -4320 912 -4400
WIRE -2048 -4240 -2048 -4320
WIRE -224 -4240 -224 -4320
WIRE 2688 -4240 2688 -4320
WIRE -1296 -4224 -1296 -4304
WIRE 528 -4224 528 -4304
WIRE -1632 -4192 -1632 -4240
WIRE 192 -4192 192 -4240
WIRE -2048 -4144 -2048 -4176
WIRE -1840 -4144 -1856 -4144
WIRE -1808 -4144 -1840 -4144
WIRE -1696 -4144 -1728 -4144
WIRE -224 -4144 -224 -4176
WIRE -16 -4144 -32 -4144
WIRE 16 -4144 -16 -4144
WIRE 128 -4144 96 -4144
WIRE 2688 -4144 2688 -4176
WIRE -896 -4112 -896 -4240
WIRE 912 -4112 912 -4240
WIRE -1296 -4096 -1296 -4144
WIRE -944 -4096 -1296 -4096
WIRE 528 -4096 528 -4144
WIRE 864 -4096 528 -4096
WIRE -1296 -4064 -1296 -4096
WIRE 528 -4064 528 -4096
WIRE 1712 -4064 1712 -4512
WIRE 2080 -4048 2080 -4272
WIRE 2080 -4048 1760 -4048
WIRE -1632 -4016 -1632 -4096
WIRE 192 -4016 192 -4096
WIRE 2080 -4016 2080 -4048
WIRE -2048 -3920 -2048 -4064
WIRE -1296 -3920 -1296 -3984
WIRE -224 -3920 -224 -4064
WIRE 528 -3920 528 -3984
WIRE 912 -3920 912 -4016
WIRE 1712 -3920 1712 -3968
WIRE 1712 -3920 912 -3920
WIRE 2688 -3920 2688 -4064
WIRE -1840 -3872 -1840 -4144
WIRE -1840 -3872 -1904 -3872
WIRE -1632 -3872 -1840 -3872
WIRE -1488 -3872 -1568 -3872
WIRE -1360 -3872 -1408 -3872
WIRE -16 -3872 -16 -4144
WIRE -16 -3872 -80 -3872
WIRE 192 -3872 -16 -3872
WIRE 336 -3872 256 -3872
WIRE 464 -3872 416 -3872
WIRE 2080 -3872 2080 -3936
WIRE 2528 -3872 2480 -3872
WIRE 2624 -3872 2608 -3872
WIRE -1632 -3824 -1632 -3856
WIRE 192 -3824 192 -3856
WIRE 1680 -3824 1648 -3824
WIRE 1712 -3824 1680 -3824
WIRE 2016 -3824 1792 -3824
WIRE -2048 -3808 -2048 -3824
WIRE -2048 -3808 -2080 -3808
WIRE -224 -3808 -224 -3824
WIRE -224 -3808 -256 -3808
WIRE 2688 -3808 2688 -3824
WIRE 2720 -3808 2688 -3808
WIRE -1296 -3760 -1296 -3824
WIRE 528 -3760 528 -3824
WIRE -896 -3728 -896 -4016
WIRE 912 -3712 912 -3920
WIRE 2080 -3712 2080 -3776
WIRE 1680 -3648 1680 -3824
WIRE 2480 -3648 2480 -3872
WIRE 2480 -3648 1680 -3648
WIRE -1296 -3520 -1632 -3520
WIRE -896 -3520 -896 -3648
WIRE -896 -3520 -1296 -3520
WIRE 192 -3520 -896 -3520
WIRE 528 -3520 192 -3520
WIRE 912 -3520 912 -3632
WIRE 912 -3520 528 -3520
WIRE 1712 -3520 912 -3520
WIRE 2080 -3520 1712 -3520
WIRE -896 -3488 -896 -3520
WIRE 912 -3488 912 -3520
WIRE -1632 -3472 -1632 -3520
WIRE 192 -3472 192 -3520
WIRE -1296 -3408 -1296 -3520
WIRE 528 -3408 528 -3520
WIRE -1632 -3360 -1632 -3392
WIRE -1360 -3360 -1632 -3360
WIRE 192 -3360 192 -3392
WIRE 464 -3360 192 -3360
WIRE 2080 -3360 2080 -3520
WIRE -1632 -3328 -1632 -3360
WIRE -896 -3328 -896 -3408
WIRE 192 -3328 192 -3360
WIRE 912 -3328 912 -3408
WIRE -2048 -3248 -2048 -3328
WIRE -224 -3248 -224 -3328
WIRE 2688 -3248 2688 -3328
WIRE -1296 -3232 -1296 -3312
WIRE 528 -3232 528 -3312
WIRE -1632 -3200 -1632 -3248
WIRE 192 -3200 192 -3248
WIRE -2048 -3152 -2048 -3184
WIRE -1840 -3152 -1856 -3152
WIRE -1808 -3152 -1840 -3152
WIRE -1696 -3152 -1728 -3152
WIRE -224 -3152 -224 -3184
WIRE -16 -3152 -32 -3152
WIRE 16 -3152 -16 -3152
WIRE 128 -3152 96 -3152
WIRE 2688 -3152 2688 -3184
WIRE -896 -3120 -896 -3248
WIRE 912 -3120 912 -3248
WIRE -1296 -3104 -1296 -3152
WIRE -944 -3104 -1296 -3104
WIRE 528 -3104 528 -3152
WIRE 864 -3104 528 -3104
WIRE -1296 -3072 -1296 -3104
WIRE 528 -3072 528 -3104
WIRE 1712 -3072 1712 -3520
WIRE 2080 -3056 2080 -3280
WIRE 2080 -3056 1760 -3056
WIRE -1632 -3024 -1632 -3104
WIRE 192 -3024 192 -3104
WIRE 2080 -3024 2080 -3056
WIRE -2048 -2928 -2048 -3072
WIRE -1296 -2928 -1296 -2992
WIRE -224 -2928 -224 -3072
WIRE 528 -2928 528 -2992
WIRE 912 -2928 912 -3024
WIRE 1712 -2928 1712 -2976
WIRE 1712 -2928 912 -2928
WIRE 2688 -2928 2688 -3072
WIRE -1840 -2880 -1840 -3152
WIRE -1840 -2880 -1904 -2880
WIRE -1632 -2880 -1840 -2880
WIRE -1488 -2880 -1568 -2880
WIRE -1360 -2880 -1408 -2880
WIRE -16 -2880 -16 -3152
WIRE -16 -2880 -80 -2880
WIRE 192 -2880 -16 -2880
WIRE 336 -2880 256 -2880
WIRE 464 -2880 416 -2880
WIRE 2080 -2880 2080 -2944
WIRE 2528 -2880 2480 -2880
WIRE 2624 -2880 2608 -2880
WIRE -1632 -2832 -1632 -2864
WIRE 192 -2832 192 -2864
WIRE 1680 -2832 1648 -2832
WIRE 1712 -2832 1680 -2832
WIRE 2016 -2832 1792 -2832
WIRE -2048 -2816 -2048 -2832
WIRE -2048 -2816 -2080 -2816
WIRE -224 -2816 -224 -2832
WIRE -224 -2816 -256 -2816
WIRE 2688 -2816 2688 -2832
WIRE 2720 -2816 2688 -2816
WIRE -1296 -2768 -1296 -2832
WIRE 528 -2768 528 -2832
WIRE -896 -2736 -896 -3024
WIRE 912 -2720 912 -2928
WIRE 2080 -2720 2080 -2784
WIRE 1680 -2656 1680 -2832
WIRE 2480 -2656 2480 -2880
WIRE 2480 -2656 1680 -2656
WIRE -1296 -2512 -1632 -2512
WIRE -896 -2512 -896 -2656
WIRE -896 -2512 -1296 -2512
WIRE 192 -2512 -896 -2512
WIRE 528 -2512 192 -2512
WIRE 912 -2512 912 -2640
WIRE 912 -2512 528 -2512
WIRE 1712 -2512 912 -2512
WIRE 2080 -2512 1712 -2512
WIRE 2992 -2512 2992 -4512
WIRE -896 -2480 -896 -2512
WIRE 912 -2480 912 -2512
WIRE -1632 -2464 -1632 -2512
WIRE 192 -2464 192 -2512
WIRE -1296 -2400 -1296 -2512
WIRE 528 -2400 528 -2512
WIRE -1632 -2352 -1632 -2384
WIRE -1360 -2352 -1632 -2352
WIRE 192 -2352 192 -2384
WIRE 464 -2352 192 -2352
WIRE 2080 -2352 2080 -2512
WIRE -1632 -2320 -1632 -2352
WIRE -896 -2320 -896 -2400
WIRE 192 -2320 192 -2352
WIRE 912 -2320 912 -2400
WIRE -2048 -2240 -2048 -2320
WIRE -224 -2240 -224 -2320
WIRE 2688 -2240 2688 -2320
WIRE -1296 -2224 -1296 -2304
WIRE 528 -2224 528 -2304
WIRE -1632 -2192 -1632 -2240
WIRE 192 -2192 192 -2240
WIRE -2048 -2144 -2048 -2176
WIRE -1840 -2144 -1856 -2144
WIRE -1808 -2144 -1840 -2144
WIRE -1696 -2144 -1728 -2144
WIRE -224 -2144 -224 -2176
WIRE -16 -2144 -32 -2144
WIRE 16 -2144 -16 -2144
WIRE 128 -2144 96 -2144
WIRE 2688 -2144 2688 -2176
WIRE -896 -2112 -896 -2240
WIRE 912 -2112 912 -2240
WIRE -1296 -2096 -1296 -2144
WIRE -944 -2096 -1296 -2096
WIRE 528 -2096 528 -2144
WIRE 864 -2096 528 -2096
WIRE -1296 -2064 -1296 -2096
WIRE 528 -2064 528 -2096
WIRE 1712 -2064 1712 -2512
WIRE 2080 -2048 2080 -2272
WIRE 2080 -2048 1760 -2048
WIRE -1632 -2016 -1632 -2096
WIRE 192 -2016 192 -2096
WIRE 2080 -2016 2080 -2048
WIRE -2048 -1920 -2048 -2064
WIRE -1296 -1920 -1296 -1984
WIRE -224 -1920 -224 -2064
WIRE 528 -1920 528 -1984
WIRE 912 -1920 912 -2016
WIRE 1712 -1920 1712 -1968
WIRE 1712 -1920 912 -1920
WIRE 2688 -1920 2688 -2064
WIRE -1840 -1872 -1840 -2144
WIRE -1840 -1872 -1904 -1872
WIRE -1632 -1872 -1840 -1872
WIRE -1488 -1872 -1568 -1872
WIRE -1360 -1872 -1408 -1872
WIRE -16 -1872 -16 -2144
WIRE -16 -1872 -80 -1872
WIRE 192 -1872 -16 -1872
WIRE 336 -1872 256 -1872
WIRE 464 -1872 416 -1872
WIRE 2080 -1872 2080 -1936
WIRE 2528 -1872 2480 -1872
WIRE 2624 -1872 2608 -1872
WIRE -1632 -1824 -1632 -1856
WIRE 192 -1824 192 -1856
WIRE 1680 -1824 1648 -1824
WIRE 1712 -1824 1680 -1824
WIRE 2016 -1824 1792 -1824
WIRE -2048 -1808 -2048 -1824
WIRE -2048 -1808 -2080 -1808
WIRE -224 -1808 -224 -1824
WIRE -224 -1808 -256 -1808
WIRE 2688 -1808 2688 -1824
WIRE 2720 -1808 2688 -1808
WIRE -1296 -1760 -1296 -1824
WIRE 528 -1760 528 -1824
WIRE -896 -1728 -896 -2016
WIRE 912 -1712 912 -1920
WIRE 2080 -1712 2080 -1776
WIRE 1680 -1648 1680 -1824
WIRE 2480 -1648 2480 -1872
WIRE 2480 -1648 1680 -1648
WIRE -1296 -1456 -1632 -1456
WIRE -896 -1456 -896 -1648
WIRE -896 -1456 -1296 -1456
WIRE 192 -1456 -896 -1456
WIRE 528 -1456 192 -1456
WIRE 912 -1456 912 -1632
WIRE 912 -1456 528 -1456
WIRE 1712 -1456 912 -1456
WIRE 2080 -1456 1712 -1456
WIRE 2288 -1456 2080 -1456
WIRE -896 -1424 -896 -1456
WIRE 912 -1424 912 -1456
WIRE -1632 -1408 -1632 -1456
WIRE 192 -1408 192 -1456
WIRE -1296 -1344 -1296 -1456
WIRE 528 -1344 528 -1456
WIRE -1632 -1296 -1632 -1328
WIRE -1360 -1296 -1632 -1296
WIRE 192 -1296 192 -1328
WIRE 464 -1296 192 -1296
WIRE 2080 -1296 2080 -1456
WIRE -1632 -1264 -1632 -1296
WIRE -896 -1264 -896 -1344
WIRE 192 -1264 192 -1296
WIRE 912 -1264 912 -1344
WIRE 2704 -1200 2704 -1280
WIRE -2048 -1184 -2048 -1264
WIRE -256 -1184 -256 -1264
WIRE -1296 -1168 -1296 -1248
WIRE 528 -1168 528 -1248
WIRE -1632 -1136 -1632 -1184
WIRE 192 -1136 192 -1184
WIRE 2704 -1104 2704 -1136
WIRE -2048 -1088 -2048 -1120
WIRE -1840 -1088 -1856 -1088
WIRE -1808 -1088 -1840 -1088
WIRE -1696 -1088 -1728 -1088
WIRE -256 -1088 -256 -1120
WIRE -16 -1088 -32 -1088
WIRE 16 -1088 -16 -1088
WIRE 128 -1088 96 -1088
WIRE -896 -1056 -896 -1184
WIRE 912 -1056 912 -1184
WIRE -1296 -1040 -1296 -1088
WIRE -944 -1040 -1296 -1040
WIRE 528 -1040 528 -1088
WIRE 864 -1040 528 -1040
WIRE -1296 -1008 -1296 -1040
WIRE 528 -1008 528 -1040
WIRE 1712 -1008 1712 -1456
WIRE 2080 -992 2080 -1216
WIRE 2080 -992 1760 -992
WIRE -1632 -960 -1632 -1040
WIRE 192 -960 192 -1040
WIRE 2080 -960 2080 -992
WIRE 2704 -880 2704 -1024
WIRE -2048 -864 -2048 -1008
WIRE -1296 -864 -1296 -928
WIRE -256 -864 -256 -1008
WIRE 528 -864 528 -928
WIRE 912 -864 912 -960
WIRE 1120 -864 912 -864
WIRE 1712 -864 1712 -912
WIRE 1712 -864 1200 -864
WIRE 2640 -832 2624 -832
WIRE -1840 -816 -1840 -1088
WIRE -1840 -816 -1904 -816
WIRE -1632 -816 -1840 -816
WIRE -1488 -816 -1568 -816
WIRE -1360 -816 -1408 -816
WIRE -16 -816 -16 -1088
WIRE -16 -816 -112 -816
WIRE 176 -816 -16 -816
WIRE 336 -816 240 -816
WIRE 464 -816 416 -816
WIRE 2080 -816 2080 -880
WIRE -1632 -768 -1632 -800
WIRE 176 -768 176 -800
WIRE 1680 -768 1648 -768
WIRE 1712 -768 1680 -768
WIRE 2016 -768 1792 -768
WIRE 2704 -768 2704 -784
WIRE 2736 -768 2704 -768
WIRE -2048 -752 -2048 -768
WIRE -2048 -752 -2080 -752
WIRE -256 -752 -256 -768
WIRE -256 -752 -288 -752
WIRE -1296 -704 -1296 -768
WIRE 528 -704 528 -768
WIRE 2080 -656 2080 -720
WIRE 912 -640 912 -864
WIRE -896 -608 -896 -960
WIRE 2992 -608 2992 -2512
WIRE 1680 -592 1680 -768
WIRE 2544 -592 2544 -832
WIRE 2544 -592 1680 -592
WIRE -896 -368 -896 -528
WIRE 192 -368 -896 -368
WIRE 528 -368 192 -368
WIRE 912 -368 912 -560
WIRE 912 -368 528 -368
WIRE 1744 -368 912 -368
WIRE 2080 -368 1744 -368
WIRE 2288 -368 2080 -368
WIRE 912 -304 912 -368
WIRE 192 -288 192 -368
WIRE 2080 -256 2080 -368
WIRE 528 -176 528 -368
WIRE 912 -160 912 -224
WIRE 192 -128 192 -208
WIRE 464 -128 192 -128
WIRE 192 -96 192 -128
WIRE 2656 -96 2656 -176
WIRE 1744 -48 1744 -368
WIRE 2080 -32 2080 -176
WIRE 2080 -32 1792 -32
WIRE -192 -16 -192 -96
WIRE 528 0 528 -80
WIRE 2656 0 2656 -32
WIRE 912 16 912 -80
WIRE 1040 16 912 16
WIRE 1168 16 1136 16
WIRE 192 32 192 -16
WIRE 2080 48 2080 -32
WIRE -192 80 -192 48
WIRE 0 80 -32 80
WIRE 16 80 0 80
WIRE 128 80 96 80
WIRE 1120 80 1120 64
WIRE 1120 80 768 80
WIRE 1168 96 1168 16
WIRE 912 112 912 16
WIRE 528 128 528 80
WIRE 768 128 768 80
WIRE 768 128 528 128
WIRE 864 128 768 128
WIRE 528 160 528 128
WIRE 192 208 192 128
WIRE 2656 224 2656 80
WIRE 912 240 912 208
WIRE 1744 240 1744 48
WIRE 1744 240 912 240
WIRE 2080 272 2080 128
WIRE 2592 272 2576 272
WIRE -192 304 -192 160
WIRE 528 304 528 240
WIRE 1712 320 1680 320
WIRE 1728 320 1712 320
WIRE 2016 320 1808 320
WIRE 2656 336 2656 320
WIRE 2688 336 2656 336
WIRE 0 352 0 80
WIRE 0 352 -48 352
WIRE 192 352 0 352
WIRE 336 352 256 352
WIRE 464 352 416 352
WIRE 912 368 912 240
WIRE 192 400 192 368
WIRE -192 416 -192 400
WIRE -192 416 -224 416
WIRE 2080 432 2080 368
WIRE 528 464 528 400
WIRE 1712 480 1712 320
WIRE 2496 480 2496 272
WIRE 2496 480 1712 480
WIRE 912 560 912 448
WIRE 2624 560 912 560
WIRE 2992 560 2992 -528
WIRE 2992 560 2624 560
WIRE -1456 1024 -1536 1024
WIRE -1072 1024 -1152 1024
WIRE -656 1024 -736 1024
WIRE -1536 1072 -1536 1024
WIRE -1152 1072 -1152 1024
WIRE -736 1072 -736 1024
WIRE -1536 1184 -1536 1152
WIRE -1152 1184 -1152 1152
WIRE -736 1184 -736 1152
WIRE -1472 1312 -1552 1312
WIRE -1072 1312 -1152 1312
WIRE -656 1312 -736 1312
WIRE -1552 1360 -1552 1312
WIRE -1152 1360 -1152 1312
WIRE -736 1360 -736 1312
WIRE -1552 1472 -1552 1440
WIRE -1152 1472 -1152 1440
WIRE -736 1472 -736 1440
FLAG 192 208 0
FLAG 528 464 0
FLAG -1632 -960 0
FLAG -1296 -704 0
FLAG 192 -960 0
FLAG 528 -704 0
FLAG -1152 1184 0
FLAG -736 1184 0
FLAG -1072 1024 VcMAS
FLAG -656 1024 VcMENOS
FLAG -736 1472 0
FLAG -656 1312 VcOFF
FLAG -1152 1472 0
FLAG -1072 1312 VcON
FLAG -1856 -1088 VcON
FLAG -32 -1088 VcON
FLAG -32 80 VcOFF
FLAG 2624 560 out_neg
FLAG 2288 -368 out_1
FLAG 2080 432 0
FLAG 1680 320 VcON
FLAG 2080 -656 0
FLAG 1648 -768 VcOFF
FLAG 2992 -2512 out_pos
FLAG -1536 1184 0
FLAG -1456 1024 VcMAS_delayed
FLAG -1552 1472 0
FLAG -1472 1312 VcMENOS_delayed
FLAG 1168 96 0
FLAG -1632 -2016 0
FLAG -1296 -1760 0
FLAG 192 -2016 0
FLAG 528 -1760 0
FLAG -1856 -2144 VcOFF
FLAG -32 -2144 VcOFF
FLAG 2080 -1712 0
FLAG 1648 -1824 VcON
FLAG -1632 -1824 0
FLAG 192 -1824 0
FLAG 176 -768 0
FLAG -1632 -768 0
FLAG 192 400 0
FLAG 2288 -1456 out_2
FLAG -224 416 0
FLAG -2080 -752 0
FLAG -288 -752 0
FLAG -256 -1808 0
FLAG -2080 -1808 0
FLAG 2720 -1808 0
FLAG 2736 -768 0
FLAG 2688 336 0
FLAG 2656 -176 VcON
FLAG -192 -96 VcON
FLAG -256 -1264 VcON
FLAG -2048 -1264 VcON
FLAG 2704 -1280 VcON
FLAG 2688 -2320 VcON
FLAG -224 -2320 VcON
FLAG -2048 -2320 VcON
FLAG -1632 -3024 0
FLAG -1296 -2768 0
FLAG 192 -3024 0
FLAG 528 -2768 0
FLAG -1856 -3152 VcOFF
FLAG -32 -3152 VcOFF
FLAG 2080 -2720 0
FLAG 1648 -2832 VcON
FLAG -1632 -2832 0
FLAG 192 -2832 0
FLAG -256 -2816 0
FLAG -2080 -2816 0
FLAG 2720 -2816 0
FLAG 2688 -3328 VcON
FLAG -224 -3328 VcON
FLAG -2048 -3328 VcON
FLAG -1632 -4016 0
FLAG -1296 -3760 0
FLAG 192 -4016 0
FLAG 528 -3760 0
FLAG -1856 -4144 VcOFF
FLAG -32 -4144 VcOFF
FLAG 2080 -3712 0
FLAG 1648 -3824 VcON
FLAG -1632 -3824 0
FLAG 192 -3824 0
FLAG -256 -3808 0
FLAG -2080 -3808 0
FLAG 2720 -3808 0
FLAG 2688 -4320 VcON
FLAG -224 -4320 VcON
FLAG -2048 -4320 VcON
DATAFLAG 944 16 ""
DATAFLAG 800 128 ""
DATAFLAG 368 -128 ""
DATAFLAG 2064 -32 ""
DATAFLAG 1392 240 ""
DATAFLAG 1696 -368 ""
DATAFLAG 2080 192 ""
DATAFLAG 528 -48 ""
DATAFLAG 656 -368 ""
DATAFLAG 384 -1296 ""
DATAFLAG 784 -1040 ""
DATAFLAG 1952 -992 ""
DATAFLAG 1344 -864 ""
DATAFLAG 528 -1216 ""
DATAFLAG 192 -1152 ""
DATAFLAG -1008 -1456 ""
DATAFLAG -1056 -1040 ""
DATAFLAG -896 -1120 ""
DATAFLAG -1456 -1296 ""
DATAFLAG -1632 -1168 ""
DATAFLAG -1296 -896 ""
DATAFLAG 528 -880 ""
DATAFLAG 1136 -1456 ""
DATAFLAG 1168 -2512 ""
DATAFLAG 2992 -672 "$-V(out_neg)"
DATAFLAG -1616 -2352 ""
DATAFLAG -1408 -2512 ""
DATAFLAG -1632 -2224 ""
DATAFLAG 1712 -1040 "$-V(out_1)"
DATAFLAG 528 -2256 ""
DATAFLAG -1296 -2256 ""
DATAFLAG 400 -2352 ""
DATAFLAG 720 -2096 ""
DATAFLAG 912 -2192 ""
DATAFLAG -1056 -2096 ""
DATAFLAG -896 -2176 ""
DATAFLAG 1168 -3520 ""
DATAFLAG -1616 -3360 ""
DATAFLAG -1408 -3520 ""
DATAFLAG -1632 -3232 ""
DATAFLAG 528 -3264 ""
DATAFLAG -1296 -3264 ""
DATAFLAG 400 -3360 ""
DATAFLAG 720 -3104 ""
DATAFLAG 912 -3200 ""
DATAFLAG -1056 -3104 ""
DATAFLAG -896 -3184 ""
DATAFLAG 1168 -4512 ""
DATAFLAG -1616 -4352 ""
DATAFLAG -1408 -4512 ""
DATAFLAG -1632 -4224 ""
DATAFLAG 528 -4256 ""
DATAFLAG -1296 -4256 ""
DATAFLAG 400 -4352 ""
DATAFLAG 720 -4096 ""
DATAFLAG 912 -4192 ""
DATAFLAG -1056 -4096 ""
DATAFLAG -896 -4176 ""
SYMBOL npn 464 304 R0
SYMATTR InstName Q12_3
SYMATTR Value MMBT2222A
SYMBOL res 512 144 R0
SYMATTR InstName R12_5
SYMATTR Value 33k
SYMBOL res 512 -16 R0
SYMATTR InstName R12_4
SYMATTR Value 4.7k
SYMBOL npn 128 32 R0
SYMATTR InstName Q12_1
SYMATTR Value MMBT2222A
SYMBOL res 176 -112 R0
SYMATTR InstName R12_3
SYMATTR Value 1k
SYMBOL res 176 -304 R0
SYMATTR InstName R12_2
SYMATTR Value 10k
SYMBOL res 432 336 R90
WINDOW 0 0 56 VBottom 2
WINDOW 3 32 56 VTop 2
SYMATTR InstName R12_6
SYMATTR Value 20k
SYMBOL voltage 912 -176 R0
WINDOW 123 0 0 Left 0
WINDOW 39 0 0 Left 0
SYMATTR InstName Vcell12
SYMATTR Value 3.3
SYMBOL pnp 464 -80 M180
SYMATTR InstName Q12_2
SYMATTR Value MMBT2907A
SYMBOL nmos 864 208 M180
SYMATTR InstName S12
SYMATTR Value IRLB8721
SYMATTR Prefix X
SYMBOL npn -1360 -864 R0
SYMATTR InstName Q21_3
SYMATTR Value MMBT2222A
SYMBOL res -1312 -1024 R0
SYMATTR InstName R21_5
SYMATTR Value 33k
SYMBOL res -1312 -1184 R0
SYMATTR InstName R21_4
SYMATTR Value 4.7k
SYMBOL npn -1696 -1136 R0
SYMATTR InstName Q21_1
SYMATTR Value MMBT2222A
SYMBOL res -1648 -1280 R0
SYMATTR InstName R21_3
SYMATTR Value 1k
SYMBOL res -1648 -1424 R0
SYMATTR InstName R21_2
SYMATTR Value 10k
SYMBOL res -1392 -832 R90
WINDOW 0 0 56 VBottom 2
WINDOW 3 32 56 VTop 2
SYMATTR InstName R21_6
SYMATTR Value 20k
SYMBOL voltage -896 -1280 R0
WINDOW 123 0 0 Left 0
WINDOW 39 0 0 Left 0
SYMATTR InstName Vcell21
SYMATTR Value 3.3
SYMBOL pnp -1360 -1248 M180
SYMATTR InstName Q21_2
SYMATTR Value MMBT2907A
SYMBOL nmos -944 -960 M180
SYMATTR InstName S21
SYMATTR Value IRLB8721
SYMATTR Prefix X
SYMBOL npn 464 -864 R0
SYMATTR InstName Q22_3
SYMATTR Value MMBT2222A
SYMBOL res 512 -1024 R0
SYMATTR InstName R22_5
SYMATTR Value 33k
SYMBOL res 512 -1184 R0
SYMATTR InstName R22_4
SYMATTR Value 4.7k
SYMBOL npn 128 -1136 R0
SYMATTR InstName Q22_1
SYMATTR Value MMBT2222A
SYMBOL res 176 -1280 R0
SYMATTR InstName R22_3
SYMATTR Value 1k
SYMBOL res 176 -1424 R0
SYMATTR InstName R22_2
SYMATTR Value 10k
SYMBOL res 432 -832 R90
WINDOW 0 0 56 VBottom 2
WINDOW 3 32 56 VTop 2
SYMATTR InstName R22_6
SYMATTR Value 20k
SYMBOL voltage 912 -1280 R0
WINDOW 123 0 0 Left 0
WINDOW 39 0 0 Left 0
SYMATTR InstName Vcell22
SYMATTR Value 3.3
SYMBOL pnp 464 -1248 M180
SYMATTR InstName Q22_2
SYMATTR Value MMBT2907A
SYMBOL nmos 864 -960 M180
SYMATTR InstName S22
SYMATTR Value IRLB8721
SYMATTR Prefix X
SYMBOL voltage -1152 1056 R0
WINDOW 3 -180 103 Left 2
WINDOW 123 0 0 Left 0
WINDOW 39 0 0 Left 0
SYMATTR Value PULSE(0 5 0 1p 1p 10m 20m)
SYMATTR InstName Vcontrol1
SYMBOL voltage -736 1056 R0
WINDOW 3 -192 102 Left 2
WINDOW 123 0 0 Left 0
WINDOW 39 0 0 Left 0
SYMATTR Value PULSE(0 5 10m 1p 1p 10m 20m)
SYMATTR InstName Vcontrol2
SYMBOL voltage -736 1344 R0
WINDOW 3 27 92 Left 2
WINDOW 123 0 0 Left 0
WINDOW 39 0 0 Left 0
SYMATTR Value 5
SYMATTR InstName Voff
SYMBOL voltage -1152 1344 R0
WINDOW 3 28 92 Left 2
WINDOW 123 0 0 Left 0
WINDOW 39 0 0 Left 0
SYMATTR Value 0
SYMATTR InstName Von
SYMBOL res -1712 -1104 R90
WINDOW 0 0 56 VBottom 2
WINDOW 3 32 56 VTop 2
SYMATTR InstName R21_1
SYMATTR Value 20k
SYMBOL res 112 -1104 R90
WINDOW 0 0 56 VBottom 2
WINDOW 3 32 56 VTop 2
SYMATTR InstName R22_1
SYMATTR Value 20k
SYMBOL res 112 64 R90
WINDOW 0 0 56 VBottom 2
WINDOW 3 32 56 VTop 2
SYMATTR InstName R12_1
SYMATTR Value 20k
SYMBOL res 896 -320 R0
SYMATTR InstName Rout12
SYMATTR Value 1m
SYMBOL res -912 -1440 R0
SYMATTR InstName Rout21
SYMATTR Value 1m
SYMBOL res 896 -1440 R0
SYMATTR InstName Rout22
SYMATTR Value 1m
SYMBOL npn 2016 272 R0
SYMATTR InstName Q1_1
SYMATTR Value MMBT2222A
SYMBOL res 1824 304 R90
WINDOW 0 0 56 VBottom 2
WINDOW 3 32 56 VTop 2
SYMATTR InstName R1_9
SYMATTR Value 20k
SYMBOL res 2064 -272 R0
SYMATTR InstName R1_7
SYMATTR Value 47k
SYMBOL npn 2016 -816 R0
SYMATTR InstName Q2_1
SYMATTR Value MMBT2222A
SYMBOL res 1808 -784 R90
WINDOW 0 0 56 VBottom 2
WINDOW 3 32 56 VTop 2
SYMATTR InstName R2_9
SYMATTR Value 20k
SYMBOL res 2064 -1312 R0
SYMATTR InstName R2_7
SYMATTR Value 47k
SYMBOL voltage -1536 1056 R0
WINDOW 3 -180 103 Left 2
WINDOW 123 0 0 Left 0
WINDOW 39 0 0 Left 0
SYMATTR Value PULSE(0 5 1m 1p 1p 10m 20m)
SYMATTR InstName Vcontrol3
SYMBOL voltage -1552 1344 R0
WINDOW 3 -192 102 Left 2
WINDOW 123 0 0 Left 0
WINDOW 39 0 0 Left 0
SYMATTR Value PULSE(0 5 10.1m 1p 1p 10m 20m)
SYMATTR InstName Vcontrol4
SYMBOL nmos 1040 64 R270
SYMATTR InstName Sgnd12
SYMATTR Value IRLB8721
SYMATTR Prefix X
SYMBOL npn -1360 -1920 R0
SYMATTR InstName Q31_1
SYMATTR Value MMBT2222A
SYMBOL res -1312 -2080 R0
SYMATTR InstName R31_5
SYMATTR Value 33k
SYMBOL res -1312 -2240 R0
SYMATTR InstName R31_4
SYMATTR Value 4.7k
SYMBOL npn -1696 -2192 R0
SYMATTR InstName Q2
SYMATTR Value MMBT2222A
SYMBOL res -1648 -2336 R0
SYMATTR InstName R31_3
SYMATTR Value 10K
SYMBOL res -1648 -2480 R0
SYMATTR InstName R31_2
SYMATTR Value 100K
SYMBOL res -1392 -1888 R90
WINDOW 0 0 56 VBottom 2
WINDOW 3 32 56 VTop 2
SYMATTR InstName R31_6
SYMATTR Value 20k
SYMBOL voltage -896 -2336 R0
WINDOW 123 0 0 Left 0
WINDOW 39 0 0 Left 0
SYMATTR InstName Vcell31
SYMATTR Value 3.3
SYMBOL pnp -1360 -2304 M180
SYMATTR InstName Q31_2
SYMATTR Value MMBT2907A
SYMBOL nmos -944 -2016 M180
SYMATTR InstName S31
SYMATTR Value IRLB8721
SYMATTR Prefix X
SYMBOL npn 464 -1920 R0
SYMATTR InstName Q32_1
SYMATTR Value MMBT2222A
SYMBOL res 512 -2080 R0
SYMATTR InstName R32_5
SYMATTR Value 33k
SYMBOL res 512 -2240 R0
SYMATTR InstName R32_4
SYMATTR Value 4.7k
SYMBOL npn 128 -2192 R0
SYMATTR InstName Q5
SYMATTR Value MMBT2222A
SYMBOL res 176 -2336 R0
SYMATTR InstName R32_3
SYMATTR Value 1k
SYMBOL res 176 -2480 R0
SYMATTR InstName R32_2
SYMATTR Value 10k
SYMBOL res 432 -1888 R90
WINDOW 0 0 56 VBottom 2
WINDOW 3 32 56 VTop 2
SYMATTR InstName R32_6
SYMATTR Value 20k
SYMBOL voltage 912 -2336 R0
WINDOW 123 0 0 Left 0
WINDOW 39 0 0 Left 0
SYMATTR InstName Vcell32
SYMATTR Value 3.3
SYMBOL pnp 464 -2304 M180
SYMATTR InstName Q32_2
SYMATTR Value MMBT2907A
SYMBOL nmos 864 -2016 M180
SYMATTR InstName S32
SYMATTR Value IRLB8721
SYMATTR Prefix X
SYMBOL res -1712 -2160 R90
WINDOW 0 0 56 VBottom 2
WINDOW 3 32 56 VTop 2
SYMATTR InstName R31_1
SYMATTR Value 20k
SYMBOL res 112 -2160 R90
WINDOW 0 0 56 VBottom 2
WINDOW 3 32 56 VTop 2
SYMATTR InstName R32_1
SYMATTR Value 20k
SYMBOL res -912 -2496 R0
SYMATTR InstName Rout31
SYMATTR Value 1m
SYMBOL res 896 -2496 R0
SYMATTR InstName Rout32
SYMATTR Value 1m
SYMBOL npn 2016 -1872 R0
SYMATTR InstName Q3_1
SYMATTR Value MMBT2222A
SYMBOL res 1808 -1840 R90
WINDOW 0 0 56 VBottom 2
WINDOW 3 32 56 VTop 2
SYMATTR InstName R3_9
SYMATTR Value 20k
SYMBOL res 2064 -2368 R0
SYMATTR InstName R3_7
SYMATTR Value 47k
SYMBOL res 896 -1728 R0
SYMATTR InstName R16
SYMATTR Value 1m
SYMBOL res -912 -1744 R0
SYMATTR InstName R17
SYMATTR Value 1m
SYMBOL Digital\\inv -1632 -1936 R0
SYMATTR InstName A1
SYMBOL Digital\\inv 192 -1936 R0
SYMATTR InstName A2
SYMBOL Digital\\inv 176 -880 R0
SYMATTR InstName A3
SYMBOL Digital\\inv -1632 -880 R0
SYMATTR InstName A4
SYMBOL Digital\\inv 192 288 R0
SYMATTR InstName A6
SYMBOL pmos 1760 -1968 R180
SYMATTR InstName S4
SYMATTR Value irlml6402
SYMATTR Prefix X
SYMBOL pmos 1760 -912 R180
SYMATTR InstName S2
SYMATTR Value irlml6402
SYMATTR Prefix X
SYMBOL pmos 1792 48 R180
SYMATTR InstName S1
SYMATTR Value irlml6402
SYMATTR Prefix X
SYMBOL voltage 912 352 R0
WINDOW 123 0 0 Left 0
WINDOW 39 0 0 Left 0
SYMATTR InstName V1
SYMATTR Value 0
SYMBOL npn -128 304 M0
SYMATTR InstName Q3
SYMATTR Value MMBT2222A
SYMBOL res -176 64 M0
SYMATTR InstName R3
SYMATTR Value 1k
SYMBOL res -32 336 R90
WINDOW 0 0 56 VBottom 2
WINDOW 3 32 56 VTop 2
SYMATTR InstName R4
SYMATTR Value 20k
SYMBOL LED -208 -16 R0
SYMATTR InstName D4
SYMBOL npn -1984 -864 M0
SYMATTR InstName Q4
SYMATTR Value MMBT2222A
SYMBOL res -2032 -1104 M0
SYMATTR InstName R5
SYMATTR Value 1k
SYMBOL res -1888 -832 R90
WINDOW 0 0 56 VBottom 2
WINDOW 3 32 56 VTop 2
SYMATTR InstName R6
SYMATTR Value 20k
SYMBOL LED -2064 -1184 R0
SYMATTR InstName D6
SYMBOL npn -192 -864 M0
SYMATTR InstName Q6
SYMATTR Value MMBT2222A
SYMBOL res -240 -1104 M0
SYMATTR InstName R7
SYMATTR Value 1k
SYMBOL res -96 -832 R90
WINDOW 0 0 56 VBottom 2
WINDOW 3 32 56 VTop 2
SYMATTR InstName R8
SYMATTR Value 20k
SYMBOL LED -272 -1184 R0
SYMATTR InstName D7
SYMBOL npn -160 -1920 M0
SYMATTR InstName Q7
SYMATTR Value MMBT2222A
SYMBOL res -208 -2160 M0
SYMATTR InstName R9
SYMATTR Value 1k
SYMBOL res -64 -1888 R90
WINDOW 0 0 56 VBottom 2
WINDOW 3 32 56 VTop 2
SYMATTR InstName R10
SYMATTR Value 20k
SYMBOL LED -240 -2240 R0
SYMATTR InstName D8
SYMBOL npn -1984 -1920 M0
SYMATTR InstName Q8
SYMATTR Value MMBT2222A
SYMBOL res -2032 -2160 M0
SYMATTR InstName R11
SYMATTR Value 1k
SYMBOL res -1888 -1888 R90
WINDOW 0 0 56 VBottom 2
WINDOW 3 32 56 VTop 2
SYMATTR InstName R12
SYMATTR Value 20k
SYMBOL LED -2064 -2240 R0
SYMATTR InstName D9
SYMBOL npn 2624 -1920 R0
SYMATTR InstName Q9
SYMATTR Value MMBT2222A
SYMBOL res 2672 -2160 R0
SYMATTR InstName R13
SYMATTR Value 1k
SYMBOL res 2512 -1888 M90
WINDOW 0 0 56 VBottom 2
WINDOW 3 32 56 VTop 2
SYMATTR InstName R14
SYMATTR Value 20k
SYMBOL LED 2704 -2240 M0
SYMATTR InstName D10
SYMBOL npn 2640 -880 R0
SYMATTR InstName Q10
SYMATTR Value MMBT2222A
SYMBOL res 2688 -1120 R0
SYMATTR InstName R15
SYMATTR Value 1k
SYMBOL res 2528 -848 M90
WINDOW 0 0 56 VBottom 2
WINDOW 3 32 56 VTop 2
SYMATTR InstName R18
SYMATTR Value 20k
SYMBOL LED 2720 -1200 M0
SYMATTR InstName D13
SYMBOL npn 2592 224 R0
SYMATTR InstName Q11
SYMATTR Value MMBT2222A
SYMBOL res 2640 -16 R0
SYMATTR InstName R19
SYMATTR Value 1k
SYMBOL res 2480 256 M90
WINDOW 0 0 56 VBottom 2
WINDOW 3 32 56 VTop 2
SYMATTR InstName R20
SYMATTR Value 20k
SYMBOL LED 2672 -96 M0
SYMATTR InstName D14
SYMBOL res 2064 32 R0
SYMATTR InstName R1_8
SYMATTR Value 30k
SYMBOL res 2064 -976 R0
SYMATTR InstName R2_8
SYMATTR Value 10k
SYMBOL res 2064 -2032 R0
SYMATTR InstName R3_8
SYMATTR Value 10k
SYMBOL npn -1360 -2928 R0
SYMATTR InstName Q1
SYMATTR Value MMBT2222A
SYMBOL res -1312 -3088 R0
SYMATTR InstName R1
SYMATTR Value 33k
SYMBOL res -1312 -3248 R0
SYMATTR InstName R2
SYMATTR Value 4.7k
SYMBOL npn -1696 -3200 R0
SYMATTR InstName Q12
SYMATTR Value MMBT2222A
SYMBOL res -1648 -3344 R0
SYMATTR InstName R21
SYMATTR Value 10K
SYMBOL res -1648 -3488 R0
SYMATTR InstName R22
SYMATTR Value 100K
SYMBOL res -1392 -2896 R90
WINDOW 0 0 56 VBottom 2
WINDOW 3 32 56 VTop 2
SYMATTR InstName R23
SYMATTR Value 20k
SYMBOL voltage -896 -3344 R0
WINDOW 123 0 0 Left 0
WINDOW 39 0 0 Left 0
SYMATTR InstName Vcell1
SYMATTR Value 3.3
SYMBOL pnp -1360 -3312 M180
SYMATTR InstName Q13
SYMATTR Value MMBT2907A
SYMBOL nmos -944 -3024 M180
SYMATTR InstName S3
SYMATTR Value IRLB8721
SYMATTR Prefix X
SYMBOL npn 464 -2928 R0
SYMATTR InstName Q14
SYMATTR Value MMBT2222A
SYMBOL res 512 -3088 R0
SYMATTR InstName R24
SYMATTR Value 33k
SYMBOL res 512 -3248 R0
SYMATTR InstName R25
SYMATTR Value 4.7k
SYMBOL npn 128 -3200 R0
SYMATTR InstName Q15
SYMATTR Value MMBT2222A
SYMBOL res 176 -3344 R0
SYMATTR InstName R26
SYMATTR Value 1k
SYMBOL res 176 -3488 R0
SYMATTR InstName R27
SYMATTR Value 10k
SYMBOL res 432 -2896 R90
WINDOW 0 0 56 VBottom 2
WINDOW 3 32 56 VTop 2
SYMATTR InstName R28
SYMATTR Value 20k
SYMBOL voltage 912 -3344 R0
WINDOW 123 0 0 Left 0
WINDOW 39 0 0 Left 0
SYMATTR InstName Vcell2
SYMATTR Value 3.3
SYMBOL pnp 464 -3312 M180
SYMATTR InstName Q16
SYMATTR Value MMBT2907A
SYMBOL nmos 864 -3024 M180
SYMATTR InstName S5
SYMATTR Value IRLB8721
SYMATTR Prefix X
SYMBOL res -1712 -3168 R90
WINDOW 0 0 56 VBottom 2
WINDOW 3 32 56 VTop 2
SYMATTR InstName R29
SYMATTR Value 20k
SYMBOL res 112 -3168 R90
WINDOW 0 0 56 VBottom 2
WINDOW 3 32 56 VTop 2
SYMATTR InstName R30
SYMATTR Value 20k
SYMBOL res -912 -3504 R0
SYMATTR InstName Rout1
SYMATTR Value 1m
SYMBOL res 896 -3504 R0
SYMATTR InstName Rout2
SYMATTR Value 1m
SYMBOL npn 2016 -2880 R0
SYMATTR InstName Q17
SYMATTR Value MMBT2222A
SYMBOL res 1808 -2848 R90
WINDOW 0 0 56 VBottom 2
WINDOW 3 32 56 VTop 2
SYMATTR InstName R31
SYMATTR Value 20k
SYMBOL res 2064 -3376 R0
SYMATTR InstName R32
SYMATTR Value 47k
SYMBOL res 896 -2736 R0
SYMATTR InstName R33
SYMATTR Value 1m
SYMBOL res -912 -2752 R0
SYMATTR InstName R34
SYMATTR Value 1m
SYMBOL Digital\\inv -1632 -2944 R0
SYMATTR InstName A5
SYMBOL Digital\\inv 192 -2944 R0
SYMATTR InstName A7
SYMBOL pmos 1760 -2976 R180
SYMATTR InstName S6
SYMATTR Value irlml6402
SYMATTR Prefix X
SYMBOL npn -160 -2928 M0
SYMATTR InstName Q18
SYMATTR Value MMBT2222A
SYMBOL res -208 -3168 M0
SYMATTR InstName R35
SYMATTR Value 1k
SYMBOL res -64 -2896 R90
WINDOW 0 0 56 VBottom 2
WINDOW 3 32 56 VTop 2
SYMATTR InstName R36
SYMATTR Value 20k
SYMBOL LED -240 -3248 R0
SYMATTR InstName D1
SYMBOL npn -1984 -2928 M0
SYMATTR InstName Q19
SYMATTR Value MMBT2222A
SYMBOL res -2032 -3168 M0
SYMATTR InstName R37
SYMATTR Value 1k
SYMBOL res -1888 -2896 R90
WINDOW 0 0 56 VBottom 2
WINDOW 3 32 56 VTop 2
SYMATTR InstName R38
SYMATTR Value 20k
SYMBOL LED -2064 -3248 R0
SYMATTR InstName D2
SYMBOL npn 2624 -2928 R0
SYMATTR InstName Q20
SYMATTR Value MMBT2222A
SYMBOL res 2672 -3168 R0
SYMATTR InstName R39
SYMATTR Value 1k
SYMBOL res 2512 -2896 M90
WINDOW 0 0 56 VBottom 2
WINDOW 3 32 56 VTop 2
SYMATTR InstName R40
SYMATTR Value 20k
SYMBOL LED 2704 -3248 M0
SYMATTR InstName D3
SYMBOL res 2064 -3040 R0
SYMATTR InstName R41
SYMATTR Value 10k
SYMBOL npn -1360 -3920 R0
SYMATTR InstName Q21
SYMATTR Value MMBT2222A
SYMBOL res -1312 -4080 R0
SYMATTR InstName R42
SYMATTR Value 33k
SYMBOL res -1312 -4240 R0
SYMATTR InstName R43
SYMATTR Value 4.7k
SYMBOL npn -1696 -4192 R0
SYMATTR InstName Q22
SYMATTR Value MMBT2222A
SYMBOL res -1648 -4336 R0
SYMATTR InstName R44
SYMATTR Value 10K
SYMBOL res -1648 -4480 R0
SYMATTR InstName R45
SYMATTR Value 100K
SYMBOL res -1392 -3888 R90
WINDOW 0 0 56 VBottom 2
WINDOW 3 32 56 VTop 2
SYMATTR InstName R46
SYMATTR Value 20k
SYMBOL voltage -896 -4336 R0
WINDOW 123 0 0 Left 0
WINDOW 39 0 0 Left 0
SYMATTR InstName Vcell3
SYMATTR Value 3.3
SYMBOL pnp -1360 -4304 M180
SYMATTR InstName Q23
SYMATTR Value MMBT2907A
SYMBOL nmos -944 -4016 M180
SYMATTR InstName S7
SYMATTR Value IRLB8721
SYMATTR Prefix X
SYMBOL npn 464 -3920 R0
SYMATTR InstName Q24
SYMATTR Value MMBT2222A
SYMBOL res 512 -4080 R0
SYMATTR InstName R47
SYMATTR Value 33k
SYMBOL res 512 -4240 R0
SYMATTR InstName R48
SYMATTR Value 4.7k
SYMBOL npn 128 -4192 R0
SYMATTR InstName Q25
SYMATTR Value MMBT2222A
SYMBOL res 176 -4336 R0
SYMATTR InstName R49
SYMATTR Value 1k
SYMBOL res 176 -4480 R0
SYMATTR InstName R50
SYMATTR Value 10k
SYMBOL res 432 -3888 R90
WINDOW 0 0 56 VBottom 2
WINDOW 3 32 56 VTop 2
SYMATTR InstName R51
SYMATTR Value 20k
SYMBOL voltage 912 -4336 R0
WINDOW 123 0 0 Left 0
WINDOW 39 0 0 Left 0
SYMATTR InstName Vcell4
SYMATTR Value 3.3
SYMBOL pnp 464 -4304 M180
SYMATTR InstName Q26
SYMATTR Value MMBT2907A