Version 4.1
SHEET 1 7868 2128
WIRE -3248 -4656 -4304 -4656
WIRE -2912 -4656 -3248 -4656
WIRE -2512 -4656 -2912 -4656
WIRE 1872 -4656 1504 -4656
WIRE 2992 -4656 1872 -4656
WIRE 3024 -4656 2992 -4656
WIRE -2512 -4640 -2512 -4656
WIRE -1648 -4640 -2512 -4640
WIRE -1312 -4640 -1648 -4640
WIRE -912 -4640 -1312 -4640
WIRE 176 -4640 -912 -4640
WIRE 512 -4640 176 -4640
WIRE 896 -4640 512 -4640
WIRE 1504 -4640 1504 -4656
WIRE 1504 -4640 896 -4640
WIRE -5040 -4624 -5904 -4624
WIRE -4704 -4624 -5040 -4624
WIRE -4304 -4624 -4304 -4656
WIRE -4304 -4624 -4704 -4624
WIRE -2512 -4624 -2512 -4640
WIRE -3248 -4608 -3248 -4656
WIRE -912 -4608 -912 -4640
WIRE 896 -4608 896 -4640
WIRE -4304 -4592 -4304 -4624
WIRE -1648 -4592 -1648 -4640
WIRE 176 -4592 176 -4640
WIRE -5040 -4576 -5040 -4624
WIRE -2912 -4544 -2912 -4656
WIRE -1312 -4528 -1312 -4640
WIRE 512 -4528 512 -4640
WIRE -4704 -4512 -4704 -4624
WIRE -3248 -4496 -3248 -4528
WIRE -2976 -4496 -3248 -4496
WIRE 1872 -4496 1872 -4656
WIRE -1648 -4480 -1648 -4512
WIRE -1376 -4480 -1648 -4480
WIRE 176 -4480 176 -4512
WIRE 448 -4480 176 -4480
WIRE -5040 -4464 -5040 -4496
WIRE -4768 -4464 -5040 -4464
WIRE -3248 -4464 -3248 -4496
WIRE -2512 -4464 -2512 -4544
WIRE -1648 -4448 -1648 -4480
WIRE -912 -4448 -912 -4528
WIRE 176 -4448 176 -4480
WIRE 896 -4448 896 -4528
WIRE -5040 -4432 -5040 -4464
WIRE -4304 -4432 -4304 -4512
WIRE -3664 -4384 -3664 -4464
WIRE 2480 -4384 2480 -4464
WIRE -2912 -4368 -2912 -4448
WIRE -2064 -4368 -2064 -4448
WIRE -240 -4368 -240 -4448
WIRE -5456 -4352 -5456 -4432
WIRE -1312 -4352 -1312 -4432
WIRE 512 -4352 512 -4432
WIRE -4704 -4336 -4704 -4416
WIRE -3248 -4336 -3248 -4384
WIRE -1648 -4320 -1648 -4368
WIRE 176 -4320 176 -4368
WIRE -5040 -4304 -5040 -4352
WIRE -3664 -4288 -3664 -4320
WIRE -3456 -4288 -3472 -4288
WIRE -3424 -4288 -3456 -4288
WIRE -3312 -4288 -3344 -4288
WIRE 2480 -4288 2480 -4320
WIRE -2064 -4272 -2064 -4304
WIRE -1856 -4272 -1872 -4272
WIRE -1824 -4272 -1856 -4272
WIRE -1712 -4272 -1744 -4272
WIRE -240 -4272 -240 -4304
WIRE -32 -4272 -48 -4272
WIRE 0 -4272 -32 -4272
WIRE 112 -4272 80 -4272
WIRE -5456 -4256 -5456 -4288
WIRE -5248 -4256 -5264 -4256
WIRE -5216 -4256 -5248 -4256
WIRE -5104 -4256 -5136 -4256
WIRE -2512 -4256 -2512 -4384
WIRE -2912 -4240 -2912 -4288
WIRE -2560 -4240 -2912 -4240
WIRE -912 -4240 -912 -4368
WIRE 896 -4240 896 -4368
WIRE -4304 -4224 -4304 -4352
WIRE -1312 -4224 -1312 -4272
WIRE -960 -4224 -1312 -4224
WIRE 512 -4224 512 -4272
WIRE 848 -4224 512 -4224
WIRE -4704 -4208 -4704 -4256
WIRE -4352 -4208 -4704 -4208
WIRE -2912 -4208 -2912 -4240
WIRE 1504 -4208 1504 -4640
WIRE -1312 -4192 -1312 -4224
WIRE 512 -4192 512 -4224
WIRE 1872 -4192 1872 -4416
WIRE 1872 -4192 1552 -4192
WIRE -4704 -4176 -4704 -4208
WIRE -3248 -4160 -3248 -4240
WIRE 1872 -4160 1872 -4192
WIRE -1648 -4144 -1648 -4224
WIRE 176 -4144 176 -4224
WIRE -5040 -4128 -5040 -4208
WIRE -3664 -4064 -3664 -4208
WIRE -2912 -4064 -2912 -4128
WIRE 896 -4064 896 -4144
WIRE 1504 -4064 1504 -4112
WIRE 1504 -4064 896 -4064
WIRE 2480 -4064 2480 -4208
WIRE -2064 -4048 -2064 -4192
WIRE -1312 -4048 -1312 -4112
WIRE -240 -4048 -240 -4192
WIRE 512 -4048 512 -4112
WIRE -5456 -4032 -5456 -4176
WIRE -4704 -4032 -4704 -4096
WIRE -3456 -4016 -3456 -4288
WIRE -3456 -4016 -3520 -4016
WIRE -3248 -4016 -3456 -4016
WIRE -3104 -4016 -3184 -4016
WIRE -2976 -4016 -3024 -4016
WIRE 1872 -4016 1872 -4080
WIRE 2320 -4016 2272 -4016
WIRE 2416 -4016 2400 -4016
WIRE -1856 -4000 -1856 -4272
WIRE -1856 -4000 -1920 -4000
WIRE -1648 -4000 -1856 -4000
WIRE -1504 -4000 -1584 -4000
WIRE -1376 -4000 -1424 -4000
WIRE -32 -4000 -32 -4272
WIRE -32 -4000 -96 -4000
WIRE 176 -4000 -32 -4000
WIRE 320 -4000 240 -4000
WIRE 448 -4000 400 -4000
WIRE -5248 -3984 -5248 -4256
WIRE -5248 -3984 -5312 -3984
WIRE -5040 -3984 -5248 -3984
WIRE -4896 -3984 -4976 -3984
WIRE -4768 -3984 -4816 -3984
WIRE -3248 -3968 -3248 -4000
WIRE 1472 -3968 1440 -3968
WIRE 1504 -3968 1472 -3968
WIRE 1808 -3968 1584 -3968
WIRE -3664 -3952 -3664 -3968
WIRE -3664 -3952 -3696 -3952
WIRE -1648 -3952 -1648 -3984
WIRE 176 -3952 176 -3984
WIRE 2480 -3952 2480 -3968
WIRE 2512 -3952 2480 -3952
WIRE -5040 -3936 -5040 -3968
WIRE -2064 -3936 -2064 -3952
WIRE -2064 -3936 -2096 -3936
WIRE -240 -3936 -240 -3952
WIRE -240 -3936 -272 -3936
WIRE -5456 -3920 -5456 -3936
WIRE -5456 -3920 -5488 -3920
WIRE -2912 -3904 -2912 -3968
WIRE -1312 -3888 -1312 -3952
WIRE 512 -3888 512 -3952
WIRE -4704 -3872 -4704 -3936
WIRE -2512 -3872 -2512 -4160
WIRE -912 -3856 -912 -4144
WIRE 1872 -3856 1872 -3920
WIRE -4304 -3840 -4304 -4128
WIRE 896 -3840 896 -4064
WIRE 1472 -3792 1472 -3968
WIRE 2272 -3792 2272 -4016
WIRE 2272 -3792 1472 -3792
WIRE -4304 -3600 -4304 -3760
WIRE -3248 -3600 -4304 -3600
WIRE -2912 -3600 -3248 -3600
WIRE -2512 -3600 -2512 -3792
WIRE -2512 -3600 -2912 -3600
WIRE -2512 -3584 -2512 -3600
WIRE -1648 -3584 -2512 -3584
WIRE -1312 -3584 -1648 -3584
WIRE -912 -3584 -912 -3776
WIRE -912 -3584 -1312 -3584
WIRE 176 -3584 -912 -3584
WIRE 512 -3584 176 -3584
WIRE 896 -3584 896 -3760
WIRE 896 -3584 512 -3584
WIRE 1648 -3584 896 -3584
WIRE 2016 -3584 1648 -3584
WIRE -5040 -3568 -5904 -3568
WIRE -4704 -3568 -5040 -3568
WIRE -4304 -3568 -4304 -3600
WIRE -4304 -3568 -4704 -3568
WIRE -2512 -3568 -2512 -3584
WIRE -3248 -3552 -3248 -3600
WIRE -912 -3552 -912 -3584
WIRE 896 -3552 896 -3584
WIRE -4304 -3536 -4304 -3568
WIRE -1648 -3536 -1648 -3584
WIRE 176 -3536 176 -3584
WIRE -5040 -3520 -5040 -3568
WIRE -2912 -3488 -2912 -3600
WIRE -1312 -3472 -1312 -3584
WIRE 512 -3472 512 -3584
WIRE -4704 -3456 -4704 -3568
WIRE -3248 -3440 -3248 -3472
WIRE -2976 -3440 -3248 -3440
WIRE -1648 -3424 -1648 -3456
WIRE -1376 -3424 -1648 -3424
WIRE 176 -3424 176 -3456
WIRE 448 -3424 176 -3424
WIRE 2016 -3424 2016 -3584
WIRE -5040 -3408 -5040 -3440
WIRE -4768 -3408 -5040 -3408
WIRE -3248 -3408 -3248 -3440
WIRE -2512 -3408 -2512 -3488
WIRE -1648 -3392 -1648 -3424
WIRE -912 -3392 -912 -3472
WIRE 176 -3392 176 -3424
WIRE 896 -3392 896 -3472
WIRE -5040 -3376 -5040 -3408
WIRE -4304 -3376 -4304 -3456
WIRE -3664 -3328 -3664 -3408
WIRE -2912 -3312 -2912 -3392
WIRE -2064 -3312 -2064 -3392
WIRE -272 -3312 -272 -3392
WIRE 2624 -3312 2624 -3392
WIRE -5456 -3296 -5456 -3376
WIRE -1312 -3296 -1312 -3376
WIRE 512 -3296 512 -3376
WIRE -4704 -3280 -4704 -3360
WIRE -3248 -3280 -3248 -3328
WIRE -1648 -3264 -1648 -3312
WIRE 176 -3264 176 -3312
WIRE -5040 -3248 -5040 -3296
WIRE -3664 -3232 -3664 -3264
WIRE -3456 -3232 -3472 -3232
WIRE -3424 -3232 -3456 -3232
WIRE -3312 -3232 -3344 -3232
WIRE -2064 -3216 -2064 -3248
WIRE -1856 -3216 -1872 -3216
WIRE -1824 -3216 -1856 -3216
WIRE -1712 -3216 -1744 -3216
WIRE -272 -3216 -272 -3248
WIRE -32 -3216 -48 -3216
WIRE 0 -3216 -32 -3216
WIRE 112 -3216 80 -3216
WIRE 2624 -3216 2624 -3248
WIRE -5456 -3200 -5456 -3232
WIRE -5248 -3200 -5264 -3200
WIRE -5216 -3200 -5248 -3200
WIRE -5104 -3200 -5136 -3200
WIRE -2512 -3200 -2512 -3328
WIRE -2912 -3184 -2912 -3232
WIRE -2560 -3184 -2912 -3184
WIRE -912 -3184 -912 -3312
WIRE 896 -3184 896 -3312
WIRE -4304 -3168 -4304 -3296
WIRE -1312 -3168 -1312 -3216
WIRE -960 -3168 -1312 -3168
WIRE 512 -3168 512 -3216
WIRE 848 -3168 512 -3168
WIRE -4704 -3152 -4704 -3200
WIRE -4352 -3152 -4704 -3152
WIRE -2912 -3152 -2912 -3184
WIRE -1312 -3136 -1312 -3168
WIRE 512 -3136 512 -3168
WIRE 1648 -3136 1648 -3584
WIRE -4704 -3120 -4704 -3152
WIRE 2016 -3120 2016 -3344
WIRE 2016 -3120 1696 -3120
WIRE -3248 -3104 -3248 -3184
WIRE -1648 -3088 -1648 -3168
WIRE 176 -3088 176 -3168
WIRE 2016 -3088 2016 -3120
WIRE -5040 -3072 -5040 -3152
WIRE -3664 -3008 -3664 -3152
WIRE -2912 -3008 -2912 -3072
WIRE -2064 -2992 -2064 -3136
WIRE -1312 -2992 -1312 -3056
WIRE -272 -2992 -272 -3136
WIRE 512 -2992 512 -3056
WIRE 896 -2992 896 -3088
WIRE 1648 -2992 1648 -3040
WIRE 1648 -2992 896 -2992
WIRE 2624 -2992 2624 -3136
WIRE -5456 -2976 -5456 -3120
WIRE -4704 -2976 -4704 -3040
WIRE -3456 -2960 -3456 -3232
WIRE -3456 -2960 -3520 -2960
WIRE -3248 -2960 -3456 -2960
WIRE -3104 -2960 -3184 -2960
WIRE -2976 -2960 -3024 -2960
WIRE -1856 -2944 -1856 -3216
WIRE -1856 -2944 -1920 -2944
WIRE -1648 -2944 -1856 -2944
WIRE -1504 -2944 -1584 -2944
WIRE -1376 -2944 -1424 -2944
WIRE -32 -2944 -32 -3216
WIRE -32 -2944 -128 -2944
WIRE 160 -2944 -32 -2944
WIRE 320 -2944 224 -2944
WIRE 448 -2944 400 -2944
WIRE 2016 -2944 2016 -3008
WIRE 2464 -2944 2416 -2944
WIRE 2560 -2944 2544 -2944
WIRE -5248 -2928 -5248 -3200
WIRE -5248 -2928 -5312 -2928
WIRE -5040 -2928 -5248 -2928
WIRE -4896 -2928 -4976 -2928
WIRE -4768 -2928 -4816 -2928
WIRE -3248 -2912 -3248 -2944
WIRE -3664 -2896 -3664 -2912
WIRE -3664 -2896 -3696 -2896
WIRE -1648 -2896 -1648 -2928
WIRE 160 -2896 160 -2928
WIRE 1616 -2896 1584 -2896
WIRE 1648 -2896 1616 -2896
WIRE 1952 -2896 1728 -2896
WIRE -5040 -2880 -5040 -2912
WIRE -2064 -2880 -2064 -2896
WIRE -2064 -2880 -2096 -2880
WIRE -272 -2880 -272 -2896
WIRE -272 -2880 -304 -2880
WIRE 2624 -2880 2624 -2896
WIRE 2656 -2880 2624 -2880
WIRE -5456 -2864 -5456 -2880
WIRE -5456 -2864 -5488 -2864
WIRE -2912 -2848 -2912 -2912
WIRE -1312 -2832 -1312 -2896
WIRE 512 -2832 512 -2896
WIRE -4704 -2816 -4704 -2880
WIRE 2016 -2784 2016 -2848
WIRE 1616 -2720 1616 -2896
WIRE 2416 -2720 2416 -2944
WIRE 2416 -2720 1616 -2720
WIRE -3232 -2528 -4288 -2528
WIRE -2896 -2528 -3232 -2528
WIRE -2512 -2528 -2512 -3104
WIRE -2512 -2528 -2896 -2528
WIRE -2496 -2528 -2512 -2528
WIRE -2496 -2512 -2496 -2528
WIRE -1632 -2512 -2496 -2512
WIRE -1296 -2512 -1632 -2512
WIRE -912 -2512 -912 -3088
WIRE -912 -2512 -1296 -2512
WIRE -896 -2512 -912 -2512
WIRE 192 -2512 -896 -2512
WIRE 528 -2512 192 -2512
WIRE 896 -2512 896 -2992
WIRE 896 -2512 528 -2512
WIRE 912 -2512 896 -2512
WIRE 1712 -2512 912 -2512
WIRE 2080 -2512 1712 -2512
WIRE 2992 -2512 2992 -4656
WIRE -5024 -2496 -5888 -2496
WIRE -4688 -2496 -5024 -2496
WIRE -4304 -2496 -4304 -3072
WIRE -4304 -2496 -4688 -2496
WIRE -4288 -2496 -4288 -2528
WIRE -4288 -2496 -4304 -2496
WIRE -2496 -2496 -2496 -2512
WIRE -3232 -2480 -3232 -2528
WIRE -896 -2480 -896 -2512
WIRE 912 -2480 912 -2512
WIRE -4288 -2464 -4288 -2496
WIRE -1632 -2464 -1632 -2512
WIRE 192 -2464 192 -2512
WIRE -5024 -2448 -5024 -2496
WIRE -2896 -2416 -2896 -2528
WIRE -1296 -2400 -1296 -2512
WIRE 528 -2400 528 -2512
WIRE -4688 -2384 -4688 -2496
WIRE -3232 -2368 -3232 -2400
WIRE -2960 -2368 -3232 -2368
WIRE -1632 -2352 -1632 -2384
WIRE -1360 -2352 -1632 -2352
WIRE 192 -2352 192 -2384
WIRE 464 -2352 192 -2352
WIRE 2080 -2352 2080 -2512
WIRE -5024 -2336 -5024 -2368
WIRE -4752 -2336 -5024 -2336
WIRE -3232 -2336 -3232 -2368
WIRE -2496 -2336 -2496 -2416
WIRE -1632 -2320 -1632 -2352
WIRE -896 -2320 -896 -2400
WIRE 192 -2320 192 -2352
WIRE 912 -2320 912 -2400
WIRE -5024 -2304 -5024 -2336
WIRE -4288 -2304 -4288 -2384
WIRE -3648 -2256 -3648 -2336
WIRE -2896 -2240 -2896 -2320
WIRE -2048 -2240 -2048 -2320
WIRE -224 -2240 -224 -2320
WIRE 2688 -2240 2688 -2320
WIRE -5440 -2224 -5440 -2304
WIRE -1296 -2224 -1296 -2304
WIRE 528 -2224 528 -2304
WIRE -4688 -2208 -4688 -2288
WIRE -3232 -2208 -3232 -2256
WIRE -1632 -2192 -1632 -2240
WIRE 192 -2192 192 -2240
WIRE -5024 -2176 -5024 -2224
WIRE -3648 -2160 -3648 -2192
WIRE -3440 -2160 -3456 -2160
WIRE -3408 -2160 -3440 -2160
WIRE -3296 -2160 -3328 -2160
WIRE -2048 -2144 -2048 -2176
WIRE -1840 -2144 -1856 -2144
WIRE -1808 -2144 -1840 -2144
WIRE -1696 -2144 -1728 -2144
WIRE -224 -2144 -224 -2176
WIRE -16 -2144 -32 -2144
WIRE 16 -2144 -16 -2144
WIRE 128 -2144 96 -2144
WIRE 2688 -2144 2688 -2176
WIRE -5440 -2128 -5440 -2160
WIRE -5232 -2128 -5248 -2128
WIRE -5200 -2128 -5232 -2128
WIRE -5088 -2128 -5120 -2128
WIRE -2496 -2128 -2496 -2256
WIRE -2896 -2112 -2896 -2160
WIRE -2544 -2112 -2896 -2112
WIRE -896 -2112 -896 -2240
WIRE 912 -2112 912 -2240
WIRE -4288 -2096 -4288 -2224
WIRE -1296 -2096 -1296 -2144
WIRE -944 -2096 -1296 -2096
WIRE 528 -2096 528 -2144
WIRE 864 -2096 528 -2096
WIRE -4688 -2080 -4688 -2128
WIRE -4336 -2080 -4688 -2080
WIRE -2896 -2080 -2896 -2112
WIRE -1296 -2064 -1296 -2096
WIRE 528 -2064 528 -2096
WIRE 1712 -2064 1712 -2512
WIRE -4688 -2048 -4688 -2080
WIRE 2080 -2048 2080 -2272
WIRE 2080 -2048 1760 -2048
WIRE -3232 -2032 -3232 -2112
WIRE -1632 -2016 -1632 -2096
WIRE 192 -2016 192 -2096
WIRE 2080 -2016 2080 -2048
WIRE -5024 -2000 -5024 -2080
WIRE -3648 -1936 -3648 -2080
WIRE -2896 -1936 -2896 -2000
WIRE -2048 -1920 -2048 -2064
WIRE -1296 -1920 -1296 -1984
WIRE -224 -1920 -224 -2064
WIRE 528 -1920 528 -1984
WIRE 912 -1920 912 -2016
WIRE 1712 -1920 1712 -1968
WIRE 1712 -1920 912 -1920
WIRE 2688 -1920 2688 -2064
WIRE -5440 -1904 -5440 -2048
WIRE -4688 -1904 -4688 -1968
WIRE -3440 -1888 -3440 -2160
WIRE -3440 -1888 -3504 -1888
WIRE -3232 -1888 -3440 -1888
WIRE -3088 -1888 -3168 -1888
WIRE -2960 -1888 -3008 -1888
WIRE -1840 -1872 -1840 -2144
WIRE -1840 -1872 -1904 -1872
WIRE -1632 -1872 -1840 -1872
WIRE -1488 -1872 -1568 -1872
WIRE -1360 -1872 -1408 -1872
WIRE -16 -1872 -16 -2144
WIRE -16 -1872 -80 -1872
WIRE 192 -1872 -16 -1872
WIRE 336 -1872 256 -1872
WIRE 464 -1872 416 -1872
WIRE 2080 -1872 2080 -1936
WIRE 2528 -1872 2480 -1872
WIRE 2624 -1872 2608 -1872
WIRE -5232 -1856 -5232 -2128
WIRE -5232 -1856 -5296 -1856
WIRE -5024 -1856 -5232 -1856
WIRE -4880 -1856 -4960 -1856
WIRE -4752 -1856 -4800 -1856
WIRE -3232 -1840 -3232 -1872
WIRE -3648 -1824 -3648 -1840
WIRE -3648 -1824 -3680 -1824
WIRE -1632 -1824 -1632 -1856
WIRE 192 -1824 192 -1856
WIRE 1680 -1824 1648 -1824
WIRE 1712 -1824 1680 -1824
WIRE 2016 -1824 1792 -1824
WIRE -5024 -1808 -5024 -1840
WIRE -2048 -1808 -2048 -1824
WIRE -2048 -1808 -2080 -1808
WIRE -224 -1808 -224 -1824
WIRE -224 -1808 -256 -1808
WIRE 2688 -1808 2688 -1824
WIRE 2720 -1808 2688 -1808
WIRE -5440 -1792 -5440 -1808
WIRE -5440 -1792 -5472 -1792
WIRE -2896 -1776 -2896 -1840
WIRE -1296 -1760 -1296 -1824
WIRE 528 -1760 528 -1824
WIRE -4688 -1744 -4688 -1808
WIRE -2496 -1744 -2496 -2032
WIRE -896 -1728 -896 -2016
WIRE -4288 -1712 -4288 -2000
WIRE 912 -1712 912 -1920
WIRE 2080 -1712 2080 -1776
WIRE 1680 -1648 1680 -1824
WIRE 2480 -1648 2480 -1872
WIRE 2480 -1648 1680 -1648
WIRE -4288 -1472 -4288 -1632
WIRE -3232 -1472 -4288 -1472
WIRE -2896 -1472 -3232 -1472
WIRE -2496 -1472 -2496 -1664
WIRE -2496 -1472 -2896 -1472
WIRE -2496 -1456 -2496 -1472
WIRE -1632 -1456 -2496 -1456
WIRE -1296 -1456 -1632 -1456
WIRE -896 -1456 -896 -1648
WIRE -896 -1456 -1296 -1456
WIRE 192 -1456 -896 -1456
WIRE 528 -1456 192 -1456
WIRE 912 -1456 912 -1632
WIRE 912 -1456 528 -1456
WIRE 1712 -1456 912 -1456
WIRE 2080 -1456 1712 -1456
WIRE 2288 -1456 2080 -1456
WIRE -5024 -1440 -5888 -1440
WIRE -4688 -1440 -5024 -1440
WIRE -4288 -1440 -4288 -1472
WIRE -4288 -1440 -4688 -1440
WIRE -2496 -1440 -2496 -1456
WIRE -3232 -1424 -3232 -1472
WIRE -896 -1424 -896 -1456
WIRE 912 -1424 912 -1456
WIRE -4288 -1408 -4288 -1440
WIRE -1632 -1408 -1632 -1456
WIRE 192 -1408 192 -1456
WIRE -5024 -1392 -5024 -1440
WIRE -2896 -1360 -2896 -1472
WIRE -1296 -1344 -1296 -1456
WIRE 528 -1344 528 -1456
WIRE -4688 -1328 -4688 -1440
WIRE -3232 -1312 -3232 -1344
WIRE -2960 -1312 -3232 -1312
WIRE -1632 -1296 -1632 -1328
WIRE -1360 -1296 -1632 -1296
WIRE 192 -1296 192 -1328
WIRE 464 -1296 192 -1296
WIRE 2080 -1296 2080 -1456
WIRE -5024 -1280 -5024 -1312
WIRE -4752 -1280 -5024 -1280
WIRE -3232 -1280 -3232 -1312
WIRE -2496 -1280 -2496 -1360
WIRE -1632 -1264 -1632 -1296
WIRE -896 -1264 -896 -1344
WIRE 192 -1264 192 -1296
WIRE 912 -1264 912 -1344
WIRE -5024 -1248 -5024 -1280
WIRE -4288 -1248 -4288 -1328
WIRE -3648 -1200 -3648 -1280
WIRE 2704 -1200 2704 -1280
WIRE -2896 -1184 -2896 -1264
WIRE -2048 -1184 -2048 -1264
WIRE -256 -1184 -256 -1264
WIRE -5440 -1168 -5440 -1248
WIRE -1296 -1168 -1296 -1248
WIRE 528 -1168 528 -1248
WIRE -4688 -1152 -4688 -1232
WIRE -3232 -1152 -3232 -1200
WIRE -1632 -1136 -1632 -1184
WIRE 192 -1136 192 -1184
WIRE -5024 -1120 -5024 -1168
WIRE -3648 -1104 -3648 -1136
WIRE -3440 -1104 -3456 -1104
WIRE -3408 -1104 -3440 -1104
WIRE -3296 -1104 -3328 -1104
WIRE 2704 -1104 2704 -1136
WIRE -2048 -1088 -2048 -1120
WIRE -1840 -1088 -1856 -1088
WIRE -1808 -1088 -1840 -1088
WIRE -1696 -1088 -1728 -1088
WIRE -256 -1088 -256 -1120
WIRE -16 -1088 -32 -1088
WIRE 16 -1088 -16 -1088
WIRE 128 -1088 96 -1088
WIRE -5440 -1072 -5440 -1104
WIRE -5232 -1072 -5248 -1072
WIRE -5200 -1072 -5232 -1072
WIRE -5088 -1072 -5120 -1072
WIRE -2496 -1072 -2496 -1200
WIRE -2896 -1056 -2896 -1104
WIRE -2544 -1056 -2896 -1056
WIRE -896 -1056 -896 -1184
WIRE 912 -1056 912 -1184
WIRE -4288 -1040 -4288 -1168
WIRE -1296 -1040 -1296 -1088
WIRE -944 -1040 -1296 -1040
WIRE 528 -1040 528 -1088
WIRE 864 -1040 528 -1040
WIRE -4688 -1024 -4688 -1072
WIRE -4336 -1024 -4688 -1024
WIRE -2896 -1024 -2896 -1056
WIRE -1296 -1008 -1296 -1040
WIRE 528 -1008 528 -1040
WIRE 1712 -1008 1712 -1456
WIRE -4688 -992 -4688 -1024
WIRE 2080 -992 2080 -1216
WIRE 2080 -992 1760 -992
WIRE -3232 -976 -3232 -1056
WIRE -1632 -960 -1632 -1040
WIRE 192 -960 192 -1040
WIRE 2080 -960 2080 -992
WIRE -5024 -944 -5024 -1024
WIRE -3648 -880 -3648 -1024
WIRE -2896 -880 -2896 -944
WIRE 2704 -880 2704 -1024
WIRE -2048 -864 -2048 -1008
WIRE -1296 -864 -1296 -928
WIRE -256 -864 -256 -1008
WIRE 528 -864 528 -928
WIRE 912 -864 912 -960
WIRE 1712 -864 1712 -912
WIRE 1712 -864 912 -864
WIRE -5440 -848 -5440 -992
WIRE -4688 -848 -4688 -912
WIRE -3440 -832 -3440 -1104
WIRE -3440 -832 -3504 -832
WIRE -3232 -832 -3440 -832
WIRE -3088 -832 -3168 -832
WIRE -2960 -832 -3008 -832
WIRE 2640 -832 2624 -832
WIRE -1840 -816 -1840 -1088
WIRE -1840 -816 -1904 -816
WIRE -1632 -816 -1840 -816
WIRE -1488 -816 -1568 -816
WIRE -1360 -816 -1408 -816
WIRE -16 -816 -16 -1088
WIRE -16 -816 -112 -816
WIRE 176 -816 -16 -816
WIRE 336 -816 240 -816
WIRE 464 -816 416 -816
WIRE 2080 -816 2080 -880
WIRE -5232 -800 -5232 -1072
WIRE -5232 -800 -5296 -800
WIRE -5024 -800 -5232 -800
WIRE -4880 -800 -4960 -800
WIRE -4752 -800 -4800 -800
WIRE -3232 -784 -3232 -816
WIRE -3648 -768 -3648 -784
WIRE -3648 -768 -3680 -768
WIRE -1632 -768 -1632 -800
WIRE 176 -768 176 -800
WIRE 1680 -768 1648 -768
WIRE 1712 -768 1680 -768
WIRE 2016 -768 1792 -768
WIRE 2704 -768 2704 -784
WIRE 2736 -768 2704 -768
WIRE -5024 -752 -5024 -784
WIRE -2048 -752 -2048 -768
WIRE -2048 -752 -2080 -752
WIRE -256 -752 -256 -768
WIRE -256 -752 -288 -752
WIRE -5440 -736 -5440 -752
WIRE -5440 -736 -5472 -736
WIRE -2896 -720 -2896 -784
WIRE -1296 -704 -1296 -768
WIRE 528 -704 528 -768
WIRE -4688 -688 -4688 -752
WIRE 2080 -656 2080 -720
WIRE 2992 -608 2992 -2512
WIRE 1680 -592 1680 -768
WIRE 2544 -592 2544 -832
WIRE 2544 -592 1680 -592
WIRE -896 -368 -896 -960
WIRE -880 -368 -896 -368
WIRE 192 -368 -880 -368
WIRE 528 -368 192 -368
WIRE 912 -368 912 -864
WIRE 912 -368 528 -368
WIRE 1744 -368 912 -368
WIRE 2080 -368 1744 -368
WIRE 2288 -368 2080 -368
WIRE -4288 -352 -4288 -944
WIRE -4272 -352 -4288 -352
WIRE -2496 -304 -2496 -976
WIRE -2480 -304 -2480 -384
WIRE -2480 -304 -2496 -304
WIRE 912 -304 912 -368
WIRE 192 -288 192 -368
WIRE 2080 -256 2080 -368
WIRE -4272 -192 -4272 -352
WIRE -3216 -192 -4272 -192
WIRE -2880 -192 -3216 -192
WIRE -2480 -192 -2480 -304
WIRE -2480 -192 -2880 -192
WIRE -2480 -176 -2480 -192
WIRE -1616 -176 -2480 -176
WIRE -1280 -176 -1616 -176
WIRE -880 -176 -880 -368
WIRE -880 -176 -1280 -176
WIRE 528 -176 528 -368
WIRE -5008 -160 -5872 -160
WIRE -4672 -160 -5008 -160
WIRE -4272 -160 -4272 -192
WIRE -4272 -160 -4672 -160
WIRE -2480 -160 -2480 -176
WIRE 912 -160 912 -224
WIRE -3216 -144 -3216 -192
WIRE -880 -144 -880 -176
WIRE -4272 -128 -4272 -160
WIRE -1616 -128 -1616 -176
WIRE 192 -128 192 -208
WIRE 464 -128 192 -128
WIRE -5008 -112 -5008 -160
WIRE 192 -96 192 -128
WIRE 2656 -96 2656 -176
WIRE -2880 -80 -2880 -192
WIRE -1280 -64 -1280 -176
WIRE -4672 -48 -4672 -160
WIRE 1744 -48 1744 -368
WIRE -3216 -32 -3216 -64
WIRE -2944 -32 -3216 -32
WIRE 2080 -32 2080 -176
WIRE 2080 -32 1792 -32
WIRE -1616 -16 -1616 -48
WIRE -1344 -16 -1616 -16
WIRE -192 -16 -192 -96
WIRE -5008 0 -5008 -32
WIRE -4736 0 -5008 0
WIRE -3216 0 -3216 -32
WIRE -2480 0 -2480 -80
WIRE 528 0 528 -80
WIRE 2656 0 2656 -32
WIRE -1616 16 -1616 -16
WIRE -880 16 -880 -64
WIRE 912 16 912 -80
WIRE 1040 16 912 16
WIRE 1168 16 1136 16
WIRE -5008 32 -5008 0
WIRE -4272 32 -4272 -48
WIRE 192 32 192 -16
WIRE 2080 48 2080 -32
WIRE -3632 80 -3632 0
WIRE -192 80 -192 48
WIRE 0 80 -32 80
WIRE 16 80 0 80
WIRE 128 80 96 80
WIRE 1120 80 1120 64
WIRE 1120 80 768 80
WIRE -2880 96 -2880 16
WIRE -2480 96 -2480 80
WIRE -2416 96 -2480 96
WIRE -2288 96 -2320 96
WIRE -2032 96 -2032 16
WIRE 1168 96 1168 16
WIRE -5424 112 -5424 32
WIRE -1280 112 -1280 32
WIRE 912 112 912 16
WIRE -4672 128 -4672 48
WIRE -4272 128 -4272 112
WIRE -4208 128 -4272 128
WIRE -4048 128 -4112 128
WIRE -3216 128 -3216 80
WIRE 528 128 528 80
WIRE 768 128 768 80
WIRE 768 128 528 128
WIRE 864 128 768 128
WIRE -1616 144 -1616 96
WIRE -880 144 -880 96
WIRE -784 144 -880 144
WIRE -656 144 -688 144
WIRE -5008 160 -5008 112
WIRE -2336 160 -2336 144
WIRE -2336 160 -2672 160
WIRE 528 160 528 128
WIRE -3632 176 -3632 144
WIRE -3424 176 -3440 176
WIRE -3392 176 -3424 176
WIRE -3280 176 -3312 176
WIRE -2288 176 -2288 96
WIRE -4128 192 -4128 176
WIRE -4128 192 -4464 192
WIRE -4048 192 -4048 128
WIRE -2032 192 -2032 160
WIRE -1824 192 -1840 192
WIRE -1792 192 -1824 192
WIRE -1680 192 -1712 192
WIRE -5424 208 -5424 176
WIRE -5216 208 -5232 208
WIRE -5184 208 -5216 208
WIRE -5072 208 -5104 208
WIRE -2480 208 -2480 96
WIRE -704 208 -704 192
WIRE -704 208 -1040 208
WIRE 192 208 192 128
WIRE -2880 224 -2880 176
WIRE -2672 224 -2672 160
WIRE -2672 224 -2880 224
WIRE -2528 224 -2672 224
WIRE -880 224 -880 144
WIRE -656 224 -656 144
WIRE 2656 224 2656 80
WIRE -4272 240 -4272 128
WIRE -1280 240 -1280 192
WIRE -1040 240 -1040 208
WIRE -1040 240 -1280 240
WIRE -928 240 -1040 240
WIRE 912 240 912 208
WIRE 1744 240 1744 48
WIRE 1744 240 912 240
WIRE -4672 256 -4672 208
WIRE -4464 256 -4464 192
WIRE -4464 256 -4672 256
WIRE -4320 256 -4464 256
WIRE -2880 256 -2880 224
WIRE -1280 272 -1280 240
WIRE 2080 272 2080 128
WIRE 2592 272 2576 272
WIRE -4672 288 -4672 256
WIRE -3216 304 -3216 224
WIRE -192 304 -192 160
WIRE 528 304 528 240
WIRE -1616 320 -1616 240
WIRE 1712 320 1680 320
WIRE 1728 320 1712 320
WIRE 2016 320 1808 320
WIRE -5008 336 -5008 256
WIRE 2656 336 2656 320
WIRE 2688 336 2656 336
WIRE 0 352 0 80
WIRE 0 352 -48 352
WIRE 192 352 0 352
WIRE 336 352 256 352
WIRE 464 352 416 352
WIRE 912 368 912 240
WIRE -3632 400 -3632 256
WIRE -2880 400 -2880 336
WIRE 192 400 192 368
WIRE -2032 416 -2032 272
WIRE -1280 416 -1280 352
WIRE -192 416 -192 400
WIRE -192 416 -224 416
WIRE -5424 432 -5424 288
WIRE -4672 432 -4672 368
WIRE 2080 432 2080 368
WIRE -3424 448 -3424 176
WIRE -3424 448 -3488 448
WIRE -3216 448 -3424 448
WIRE -3072 448 -3152 448
WIRE -2944 448 -2992 448
WIRE -1824 464 -1824 192
WIRE -1824 464 -1888 464
WIRE -1616 464 -1824 464
WIRE -1472 464 -1552 464
WIRE -1344 464 -1392 464
WIRE 528 464 528 400
WIRE -5216 480 -5216 208
WIRE -5216 480 -5280 480
WIRE -5008 480 -5216 480
WIRE -4864 480 -4944 480
WIRE -4736 480 -4784 480
WIRE 1712 480 1712 320
WIRE 2496 480 2496 272
WIRE 2496 480 1712 480
WIRE -3216 496 -3216 464
WIRE -3632 512 -3632 496
WIRE -3632 512 -3664 512
WIRE -1616 512 -1616 480
WIRE -5008 528 -5008 496
WIRE -2032 528 -2032 512
WIRE -2032 528 -2064 528
WIRE -5424 544 -5424 528
WIRE -5424 544 -5456 544
WIRE -2880 560 -2880 496
WIRE -880 560 -880 320
WIRE -784 560 -880 560
WIRE 912 560 912 448
WIRE 912 560 -784 560
WIRE 2624 560 912 560
WIRE 2992 560 2992 -528
WIRE 2992 560 2624 560
WIRE -1280 576 -1280 512
WIRE -4672 592 -4672 528
WIRE -4272 752 -4272 336
WIRE -2480 752 -2480 304
WIRE -2480 752 -4272 752
WIRE -784 752 -784 560
WIRE -784 752 -2480 752
WIRE 2656 1456 2576 1456
WIRE 3040 1456 2960 1456
WIRE 3456 1456 3376 1456
WIRE 2576 1504 2576 1456
WIRE 2960 1504 2960 1456
WIRE 3376 1504 3376 1456
WIRE 2576 1616 2576 1584
WIRE 2960 1616 2960 1584
WIRE 3376 1616 3376 1584
WIRE 2640 1744 2560 1744
WIRE 3040 1744 2960 1744
WIRE 3456 1744 3376 1744
WIRE 2560 1792 2560 1744
WIRE 2960 1792 2960 1744
WIRE 3376 1792 3376 1744
WIRE 2560 1904 2560 1872
WIRE 2960 1904 2960 1872
WIRE 3376 1904 3376 1872
FLAG 192 208 0
FLAG 528 464 0
FLAG -1632 -960 0
FLAG -1296 -704 0
FLAG 192 -960 0
FLAG 528 -704 0
FLAG 2960 1616 0
FLAG 3376 1616 0
FLAG 3040 1456 VcMAS
FLAG 3456 1456 VcMENOS
FLAG 3376 1904 0
FLAG 3456 1744 VcON
FLAG 2960 1904 0
FLAG 3040 1744 VcOFF
FLAG -1856 -1088 VcOFF
FLAG -32 -1088 VcOFF
FLAG -32 80 VcON
FLAG 2624 560 out_neg
FLAG 2288 -368 out_1
FLAG 2080 432 0
FLAG 1680 320 VcOFF
FLAG 2080 -656 0
FLAG 1648 -768 VcON
FLAG 2992 -2512 out_pos
FLAG 2576 1616 0
FLAG 2656 1456 VcMAS_delayed
FLAG 2560 1904 0
FLAG 2640 1744 VcMENOS_delayed
FLAG 1168 96 0
FLAG -1632 -2016 0
FLAG -1296 -1760 0
FLAG 192 -2016 0
FLAG 528 -1760 0
FLAG -1856 -2144 VcOFF
FLAG -32 -2144 VcOFF
FLAG 2080 -1712 0
FLAG 1648 -1824 VcON
FLAG -1632 -1824 0
FLAG 192 -1824 0
FLAG 176 -768 0
FLAG -1632 -768 0
FLAG 192 400 0
FLAG 2288 -1456 out_2
FLAG -224 416 0
FLAG -2080 -752 0
FLAG -288 -752 0
FLAG -256 -1808 0
FLAG -2080 -1808 0
FLAG 2720 -1808 0
FLAG 2736 -768 0
FLAG 2688 336 0
FLAG 2656 -176 VcON
FLAG -192 -96 VcON
FLAG -256 -1264 VcON
FLAG -2048 -1264 VcON
FLAG 2704 -1280 VcON
FLAG 2688 -2320 VcON
FLAG -224 -2320 VcON
FLAG -2048 -2320 VcON
FLAG -3232 -976 0
FLAG -2896 -720 0
FLAG -3456 -1104 VcOFF
FLAG -3232 -2032 0
FLAG -2896 -1776 0
FLAG -3456 -2160 VcOFF
FLAG -3232 -1840 0
FLAG -3232 -784 0
FLAG -3680 -768 0
FLAG -3680 -1824 0
FLAG -3648 -1280 VcON
FLAG -3648 -2336 VcON
FLAG -1616 320 0
FLAG -1280 576 0
FLAG -1840 192 VcON
FLAG -1616 512 0
FLAG -2064 528 0
FLAG -2032 16 VcON
FLAG -3216 304 0
FLAG -2880 560 0
FLAG -3440 176 VcON
FLAG -3216 496 0
FLAG -3664 512 0
FLAG -3632 0 VcON
FLAG -5024 -944 0
FLAG -4688 -688 0
FLAG -5248 -1072 VcOFF
FLAG -5024 -2000 0
FLAG -4688 -1744 0
FLAG -5248 -2128 VcOFF
FLAG -5024 -1808 0
FLAG -5024 -752 0
FLAG -5472 -736 0
FLAG -5472 -1792 0
FLAG -5440 -1248 VcON
FLAG -5440 -2304 VcON
FLAG -5008 336 0
FLAG -4672 592 0
FLAG -5232 208 VcON
FLAG -5008 528 0
FLAG -5456 544 0
FLAG -5424 32 VcON
FLAG -1648 -3088 0
FLAG -1312 -2832 0
FLAG 176 -3088 0
FLAG 512 -2832 0
FLAG -1872 -3216 VcON
FLAG -48 -3216 VcON
FLAG -1648 -4144 0
FLAG -1312 -3888 0
FLAG 176 -4144 0
FLAG 512 -3888 0
FLAG -1872 -4272 VcOFF
FLAG -48 -4272 VcOFF
FLAG -1648 -3952 0
FLAG 176 -3952 0
FLAG 160 -2896 0
FLAG -1648 -2896 0
FLAG -2096 -2880 0
FLAG -304 -2880 0
FLAG -272 -3936 0
FLAG -2096 -3936 0
FLAG -272 -3392 VcON
FLAG -2064 -3392 VcON
FLAG -240 -4448 VcON
FLAG -2064 -4448 VcON
FLAG -3248 -3104 0
FLAG -2912 -2848 0
FLAG -3472 -3232 VcON
FLAG -3248 -4160 0
FLAG -2912 -3904 0
FLAG -3472 -4288 VcOFF
FLAG -3248 -3968 0
FLAG -3248 -2912 0
FLAG -3696 -2896 0
FLAG -3696 -3952 0
FLAG -3664 -3408 VcON
FLAG -3664 -4464 VcON
FLAG -5040 -3072 0
FLAG -4704 -2816 0
FLAG -5264 -3200 VcON
FLAG -5040 -4128 0
FLAG -4704 -3872 0
FLAG -5264 -4256 VcOFF
FLAG -5040 -3936 0
FLAG -5040 -2880 0
FLAG -5488 -2864 0
FLAG -5488 -3920 0
FLAG -5456 -3376 VcON
FLAG -5456 -4432 VcON
FLAG 2016 -2784 0
FLAG 1584 -2896 VcOFF
FLAG 2656 -2880 0
FLAG 2624 -3392 VcON
FLAG 1872 -3856 0
FLAG 1440 -3968 VcON
FLAG 2512 -3952 0
FLAG 2480 -4464 VcON
FLAG -656 224 0
FLAG -2288 176 0
FLAG -4048 192 0
DATAFLAG 800 128 ""
DATAFLAG 368 -128 ""
DATAFLAG 2080 192 ""
DATAFLAG 528 -48 ""
DATAFLAG 656 -368 ""
DATAFLAG 384 -1296 ""
DATAFLAG 784 -1040 ""
DATAFLAG 1952 -992 ""
DATAFLAG 528 -1216 ""
DATAFLAG 192 -1152 ""
DATAFLAG -1008 -1456 ""
DATAFLAG -1056 -1040 ""
DATAFLAG -896 -1120 ""
DATAFLAG -1456 -1296 ""
DATAFLAG -1632 -1168 ""
DATAFLAG -1296 -896 ""
DATAFLAG 528 -880 ""
DATAFLAG -1616 -2352 ""
DATAFLAG -1408 -2512 ""
DATAFLAG -1632 -2224 ""
DATAFLAG 528 -2256 ""
DATAFLAG -1296 -2256 ""
DATAFLAG 400 -2352 ""
DATAFLAG 720 -2096 ""
DATAFLAG 912 -2192 ""
DATAFLAG -1056 -2096 ""
DATAFLAG -896 -2176 ""
DATAFLAG -2608 -1472 ""
DATAFLAG -2656 -1056 ""
DATAFLAG -2496 -1136 ""
DATAFLAG -3056 -1312 ""
DATAFLAG -3232 -1184 ""
DATAFLAG -2896 -912 ""
DATAFLAG -3216 -2368 ""
DATAFLAG -3008 -2528 ""
DATAFLAG -3232 -2240 ""
DATAFLAG -2896 -2272 ""
DATAFLAG -2656 -2112 ""
DATAFLAG -2496 -2192 ""
DATAFLAG -992 -176 ""
DATAFLAG -1040 240 ""
DATAFLAG -880 160 ""
DATAFLAG -1440 -16 ""
DATAFLAG -1616 112 ""
DATAFLAG -1280 384 ""
DATAFLAG -2592 -192 ""
DATAFLAG -2640 224 ""
DATAFLAG -2480 144 ""
DATAFLAG -3040 -32 ""
DATAFLAG -3216 96 ""
DATAFLAG -2880 368 ""
DATAFLAG -4400 -1440 ""
DATAFLAG -4448 -1024 ""
DATAFLAG -4288 -1104 ""
DATAFLAG -4848 -1280 ""
DATAFLAG -5024 -1152 ""
DATAFLAG -4688 -880 ""
DATAFLAG -5008 -2336 ""
DATAFLAG -4800 -2496 ""
DATAFLAG -5024 -2208 ""
DATAFLAG -4688 -2240 ""
DATAFLAG -4448 -2080 ""
DATAFLAG -4288 -2160 ""
DATAFLAG -4384 -160 ""
DATAFLAG -4432 256 ""
DATAFLAG -4272 176 ""
DATAFLAG -4832 0 ""
DATAFLAG -5008 128 ""
DATAFLAG -4672 400 ""
DATAFLAG 368 -3424 ""
DATAFLAG 768 -3168 ""
DATAFLAG 512 -3344 ""
DATAFLAG 176 -3280 ""
DATAFLAG -1024 -3584 ""
DATAFLAG -1072 -3168 ""
DATAFLAG -912 -3248 ""
DATAFLAG -1472 -3424 ""
DATAFLAG -1648 -3296 ""
DATAFLAG -1312 -3024 ""
DATAFLAG 512 -3008 ""
DATAFLAG -1632 -4480 ""
DATAFLAG -1424 -4640 ""
DATAFLAG -1648 -4352 ""
DATAFLAG 512 -4384 ""
DATAFLAG -1312 -4384 ""
DATAFLAG 384 -4480 ""
DATAFLAG 704 -4224 ""
DATAFLAG 896 -4320 ""
DATAFLAG -1072 -4224 ""
DATAFLAG -912 -4304 ""
DATAFLAG -2624 -3600 ""
DATAFLAG -2672 -3184 ""
DATAFLAG -2512 -3264 ""
DATAFLAG -3072 -3440 ""
DATAFLAG -3248 -3312 ""
DATAFLAG -2912 -3040 ""
DATAFLAG -3232 -4496 ""
DATAFLAG -3024 -4656 ""
DATAFLAG -3248 -4368 ""
DATAFLAG -2912 -4400 ""
DATAFLAG -2672 -4240 ""
DATAFLAG -2512 -4320 ""
DATAFLAG -4416 -3568 ""
DATAFLAG -4464 -3152 ""
DATAFLAG -4304 -3232 ""
DATAFLAG -4864 -3408 ""
DATAFLAG -5040 -3280 ""
DATAFLAG -4704 -3008 ""
DATAFLAG -5024 -4464 ""
DATAFLAG -4816 -4624 ""
DATAFLAG -5040 -4336 ""
DATAFLAG -4704 -4368 ""
DATAFLAG -4464 -4208 ""
DATAFLAG -4304 -4288 ""
DATAFLAG 1312 -1456 "$-V(out_1)"
DATAFLAG 1232 -2512 "$-V(N155)"
DATAFLAG 1216 -3584 "$-V(N100)"
DATAFLAG 1184 -4640 "$-V(N037)"
DATAFLAG 1328 -368 "$-V(N262)"
DATAFLAG 912 -32 ""
DATAFLAG 1184 560 ""
DATAFLAG 912 -928 "$-V(N201)"
DATAFLAG 1712 -1120 "$-V(out_1)"
DATAFLAG 1712 -2144 "$-V(N155)"