.MODEL MMBT2907A  PNP (IS=60.7f NF=1.00 BF=312 VAF=139 
+ IKF=0.219 ISE=26.0p NE=2.00 BR=4.00 NR=1.00 
+ VAR=20.0 IKR=0.540 RE=85.8m RB=0.343 RC=34.3m 
+ XTB=1.5 CJE=50.4p VJE=1.10 MJE=0.500 CJC=23.1p VJC=0.300 
+ MJC=0.300 TF=758p TR=123n EG=1.12 )