* Test MOSFET
Vdd  Ndd 0  12         
Rl   Ndr 0  10         
M1   Ndr Ng 0 0  NMOS  
Vg   Ng  0  PULSE(0 10 0 1u 1u 5u 10u)  

.model NMOS nmos (Vto=2.5 Rd=0.05 Rs=0.05 Kp=10m)
.tran 0 50u 0 100n
.control
run
plot V(Ng) V(Ndr)
.endc
.end
