.MODEL MMBT2222A  NPN (IS=25.4f NF=1.00 BF=274 VAF=114 
+ IKF=0.121 ISE=14.3p NE=2.00 BR=4.00 NR=1.00 
+ VAR=24.0 IKR=0.300 RE=0.219 RB=0.877 RC=87.7m 
+ XTB=1.5 CJE=27.6p VJE=1.10 MJE=0.500 CJC=14.2p VJC=0.300 
+ MJC=0.300 TF=622p TR=124n EG=1.12 )