Version 4.1
SHEET 1 5536 2128
WIRE -4080 -4560 -4416 -4560
WIRE -3968 -4560 -4080 -4560
WIRE -3888 -4560 -3968 -4560
WIRE -3200 -4560 -3888 -4560
WIRE -2864 -4560 -3200 -4560
WIRE -2752 -4560 -2864 -4560
WIRE -2672 -4560 -2752 -4560
WIRE -2064 -4560 -2672 -4560
WIRE -1728 -4560 -2064 -4560
WIRE -1616 -4560 -1728 -4560
WIRE -1536 -4560 -1616 -4560
WIRE -928 -4560 -1536 -4560
WIRE -592 -4560 -928 -4560
WIRE -496 -4560 -592 -4560
WIRE -400 -4560 -496 -4560
WIRE 192 -4560 -400 -4560
WIRE 528 -4560 192 -4560
WIRE 624 -4560 528 -4560
WIRE 720 -4560 624 -4560
WIRE 1520 -4560 720 -4560
WIRE 1632 -4560 1520 -4560
WIRE 1728 -4560 1632 -4560
WIRE 1936 -4560 1728 -4560
WIRE 2240 -4560 1936 -4560
WIRE -3888 -4528 -3888 -4560
WIRE -2672 -4528 -2672 -4560
WIRE -1536 -4528 -1536 -4560
WIRE -400 -4528 -400 -4560
WIRE 720 -4528 720 -4560
WIRE -4416 -4512 -4416 -4560
WIRE -3200 -4512 -3200 -4560
WIRE -2064 -4512 -2064 -4560
WIRE -928 -4512 -928 -4560
WIRE 192 -4512 192 -4560
WIRE 1632 -4480 1632 -4560
WIRE -4080 -4448 -4080 -4560
WIRE -2864 -4448 -2864 -4560
WIRE -1728 -4448 -1728 -4560
WIRE -592 -4448 -592 -4560
WIRE 528 -4448 528 -4560
WIRE -4416 -4400 -4416 -4432
WIRE -4144 -4400 -4416 -4400
WIRE -3200 -4400 -3200 -4432
WIRE -2928 -4400 -3200 -4400
WIRE -2064 -4400 -2064 -4432
WIRE -1792 -4400 -2064 -4400
WIRE -928 -4400 -928 -4432
WIRE -656 -4400 -928 -4400
WIRE 192 -4400 192 -4432
WIRE 464 -4400 192 -4400
WIRE 1728 -4400 1728 -4560
WIRE 1936 -4400 1936 -4560
WIRE -4416 -4368 -4416 -4400
WIRE -3888 -4368 -3888 -4448
WIRE -3200 -4368 -3200 -4400
WIRE -2672 -4368 -2672 -4448
WIRE -2064 -4368 -2064 -4400
WIRE -1536 -4368 -1536 -4448
WIRE -928 -4368 -928 -4400
WIRE -400 -4368 -400 -4448
WIRE 192 -4368 192 -4400
WIRE 720 -4368 720 -4448
WIRE 1888 -4336 1840 -4336
WIRE -5728 -4320 -5728 -4352
WIRE -5232 -4320 -5232 -4352
WIRE -7296 -4288 -7296 -4320
WIRE -6768 -4288 -6768 -4320
WIRE -6240 -4288 -6240 -4320
WIRE -9200 -4272 -9200 -4288
WIRE -8640 -4272 -8640 -4288
WIRE -4080 -4272 -4080 -4352
WIRE -2864 -4272 -2864 -4352
WIRE -1728 -4272 -1728 -4352
WIRE -592 -4272 -592 -4352
WIRE 528 -4272 528 -4352
WIRE -9536 -4256 -9536 -4272
WIRE -8912 -4256 -8912 -4272
WIRE -9856 -4240 -9856 -4256
WIRE -4416 -4240 -4416 -4288
WIRE -3200 -4240 -3200 -4288
WIRE -2064 -4240 -2064 -4288
WIRE -928 -4240 -928 -4288
WIRE 192 -4240 192 -4288
WIRE -5728 -4224 -5728 -4240
WIRE -5232 -4224 -5232 -4240
WIRE -7296 -4192 -7296 -4208
WIRE -6768 -4192 -6768 -4208
WIRE -6240 -4192 -6240 -4208
WIRE -4592 -4192 -4640 -4192
WIRE -4480 -4192 -4512 -4192
WIRE -3376 -4192 -3424 -4192
WIRE -3264 -4192 -3296 -4192
WIRE -2240 -4192 -2288 -4192
WIRE -2128 -4192 -2160 -4192
WIRE -1104 -4192 -1152 -4192
WIRE -992 -4192 -1024 -4192
WIRE 16 -4192 -32 -4192
WIRE 128 -4192 96 -4192
WIRE -9200 -4160 -9200 -4192
WIRE -8640 -4160 -8640 -4192
WIRE -3888 -4160 -3888 -4288
WIRE -2672 -4160 -2672 -4288
WIRE -1536 -4160 -1536 -4288
WIRE -400 -4160 -400 -4288
WIRE 720 -4160 720 -4288
WIRE -9536 -4144 -9536 -4176
WIRE -8912 -4144 -8912 -4176
WIRE -4080 -4144 -4080 -4192
WIRE -3968 -4144 -3968 -4496
WIRE -3968 -4144 -4080 -4144
WIRE -3936 -4144 -3968 -4144
WIRE -2864 -4144 -2864 -4192
WIRE -2752 -4144 -2752 -4496
WIRE -2752 -4144 -2864 -4144
WIRE -2720 -4144 -2752 -4144
WIRE -1728 -4144 -1728 -4192
WIRE -1616 -4144 -1616 -4496
WIRE -1616 -4144 -1728 -4144
WIRE -1584 -4144 -1616 -4144
WIRE -592 -4144 -592 -4192
WIRE -496 -4144 -496 -4496
WIRE -496 -4144 -592 -4144
WIRE -448 -4144 -496 -4144
WIRE 528 -4144 528 -4192
WIRE 624 -4144 624 -4496
WIRE 624 -4144 528 -4144
WIRE 672 -4144 624 -4144
WIRE -9856 -4128 -9856 -4160
WIRE -4080 -4112 -4080 -4144
WIRE -2864 -4112 -2864 -4144
WIRE -1728 -4112 -1728 -4144
WIRE -592 -4112 -592 -4144
WIRE 528 -4112 528 -4144
WIRE 1520 -4112 1520 -4560
WIRE 1632 -4096 1632 -4416
WIRE 1632 -4096 1568 -4096
WIRE 1728 -4096 1728 -4320
WIRE 1728 -4096 1632 -4096
WIRE 1936 -4096 1936 -4304
WIRE 1936 -4096 1728 -4096
WIRE -4416 -4064 -4416 -4144
WIRE -3200 -4064 -3200 -4144
WIRE -2064 -4064 -2064 -4144
WIRE -928 -4064 -928 -4144
WIRE 192 -4064 192 -4144
WIRE 1728 -4064 1728 -4096
WIRE -5728 -4000 -5728 -4032
WIRE -5232 -4000 -5232 -4032
WIRE -7296 -3968 -7296 -4000
WIRE -6768 -3968 -6768 -4000
WIRE -6240 -3968 -6240 -4000
WIRE -4080 -3968 -4080 -4032
WIRE -2864 -3968 -2864 -4032
WIRE -1728 -3968 -1728 -4032
WIRE -592 -3968 -592 -4032
WIRE 528 -3968 528 -4032
WIRE 720 -3968 720 -4064
WIRE 1520 -3968 1520 -4016
WIRE 1520 -3968 720 -3968
WIRE -9200 -3952 -9200 -3968
WIRE -8640 -3952 -8640 -3968
WIRE 1728 -3952 1728 -3984
WIRE 1840 -3952 1840 -4336
WIRE 1840 -3952 1728 -3952
WIRE -9536 -3936 -9536 -3952
WIRE -8912 -3936 -8912 -3952
WIRE -9856 -3920 -9856 -3936
WIRE -4272 -3920 -4352 -3920
WIRE -4144 -3920 -4192 -3920
WIRE -3056 -3920 -3104 -3920
WIRE -2928 -3920 -2976 -3920
WIRE -1920 -3920 -1968 -3920
WIRE -1792 -3920 -1840 -3920
WIRE -784 -3920 -832 -3920
WIRE -656 -3920 -704 -3920
WIRE 336 -3920 288 -3920
WIRE 464 -3920 416 -3920
WIRE 1728 -3920 1728 -3952
WIRE -5728 -3904 -5728 -3920
WIRE -5232 -3904 -5232 -3920
WIRE -7296 -3872 -7296 -3888
WIRE -6768 -3872 -6768 -3888
WIRE -6240 -3872 -6240 -3888
WIRE 1520 -3872 1456 -3872
WIRE 1664 -3872 1600 -3872
WIRE -9200 -3840 -9200 -3872
WIRE -8640 -3840 -8640 -3872
WIRE -9536 -3824 -9536 -3856
WIRE -8912 -3824 -8912 -3856
WIRE -9856 -3808 -9856 -3840
WIRE -4080 -3808 -4080 -3872
WIRE -2864 -3808 -2864 -3872
WIRE -1728 -3808 -1728 -3872
WIRE -592 -3808 -592 -3872
WIRE 528 -3808 528 -3872
WIRE 1728 -3760 1728 -3824
WIRE -5728 -3616 -5728 -3648
WIRE -5232 -3616 -5232 -3648
WIRE -7296 -3584 -7296 -3616
WIRE -6768 -3584 -6768 -3616
WIRE -6240 -3584 -6240 -3616
WIRE -9200 -3568 -9200 -3584
WIRE -8640 -3568 -8640 -3584
WIRE -9536 -3552 -9536 -3568
WIRE -8912 -3552 -8912 -3568
WIRE -9856 -3536 -9856 -3552
WIRE -5728 -3520 -5728 -3536
WIRE -5232 -3520 -5232 -3536
WIRE -4080 -3520 -4416 -3520
WIRE -3968 -3520 -4080 -3520
WIRE -3888 -3520 -3888 -4064
WIRE -3888 -3520 -3968 -3520
WIRE -3200 -3520 -3888 -3520
WIRE -2864 -3520 -3200 -3520
WIRE -2752 -3520 -2864 -3520
WIRE -2672 -3520 -2672 -4064
WIRE -2672 -3520 -2752 -3520
WIRE -2064 -3520 -2672 -3520
WIRE -1728 -3520 -2064 -3520
WIRE -1616 -3520 -1728 -3520
WIRE -1536 -3520 -1536 -4064
WIRE -1536 -3520 -1616 -3520
WIRE -928 -3520 -1536 -3520
WIRE -592 -3520 -928 -3520
WIRE -496 -3520 -592 -3520
WIRE -400 -3520 -400 -4064
WIRE -400 -3520 -496 -3520
WIRE 192 -3520 -400 -3520
WIRE 528 -3520 192 -3520
WIRE 624 -3520 528 -3520
WIRE 720 -3520 720 -3968
WIRE 720 -3520 624 -3520
WIRE 1520 -3520 720 -3520
WIRE 1632 -3520 1520 -3520
WIRE 1728 -3520 1632 -3520
WIRE 1936 -3520 1728 -3520
WIRE -7296 -3488 -7296 -3504
WIRE -6768 -3488 -6768 -3504
WIRE -6240 -3488 -6240 -3504
WIRE -3888 -3488 -3888 -3520
WIRE -2672 -3488 -2672 -3520
WIRE -1536 -3488 -1536 -3520
WIRE -400 -3488 -400 -3520
WIRE 720 -3488 720 -3520
WIRE -4416 -3472 -4416 -3520
WIRE -3200 -3472 -3200 -3520
WIRE -2064 -3472 -2064 -3520
WIRE -928 -3472 -928 -3520
WIRE 192 -3472 192 -3520
WIRE -9200 -3456 -9200 -3488
WIRE -8640 -3456 -8640 -3488
WIRE -9536 -3440 -9536 -3472
WIRE -8912 -3440 -8912 -3472
WIRE 1632 -3440 1632 -3520
WIRE -9856 -3424 -9856 -3456
WIRE -4080 -3408 -4080 -3520
WIRE -2864 -3408 -2864 -3520
WIRE -1728 -3408 -1728 -3520
WIRE -592 -3408 -592 -3520
WIRE 528 -3408 528 -3520
WIRE -4416 -3360 -4416 -3392
WIRE -4144 -3360 -4416 -3360
WIRE -3200 -3360 -3200 -3392
WIRE -2928 -3360 -3200 -3360
WIRE -2064 -3360 -2064 -3392
WIRE -1792 -3360 -2064 -3360
WIRE -928 -3360 -928 -3392
WIRE -656 -3360 -928 -3360
WIRE 192 -3360 192 -3392
WIRE 464 -3360 192 -3360
WIRE 1728 -3360 1728 -3520
WIRE 1936 -3360 1936 -3520
WIRE -4416 -3328 -4416 -3360
WIRE -3888 -3328 -3888 -3408
WIRE -3200 -3328 -3200 -3360
WIRE -2672 -3328 -2672 -3408
WIRE -2064 -3328 -2064 -3360
WIRE -1536 -3328 -1536 -3408
WIRE -928 -3328 -928 -3360
WIRE -400 -3328 -400 -3408
WIRE 192 -3328 192 -3360
WIRE 720 -3328 720 -3408
WIRE -5728 -3296 -5728 -3328
WIRE -5232 -3296 -5232 -3328
WIRE 1888 -3296 1840 -3296
WIRE -7296 -3264 -7296 -3296
WIRE -6768 -3264 -6768 -3296
WIRE -6240 -3264 -6240 -3296
WIRE -9200 -3248 -9200 -3264
WIRE -8640 -3248 -8640 -3264
WIRE -9536 -3232 -9536 -3248
WIRE -8912 -3232 -8912 -3248
WIRE -4080 -3232 -4080 -3312
WIRE -2864 -3232 -2864 -3312
WIRE -1728 -3232 -1728 -3312
WIRE -592 -3232 -592 -3312
WIRE 528 -3232 528 -3312
WIRE -9856 -3216 -9856 -3232
WIRE -5728 -3200 -5728 -3216
WIRE -5232 -3200 -5232 -3216
WIRE -4416 -3200 -4416 -3248
WIRE -3200 -3200 -3200 -3248
WIRE -2064 -3200 -2064 -3248
WIRE -928 -3200 -928 -3248
WIRE 192 -3200 192 -3248
WIRE -7296 -3168 -7296 -3184
WIRE -6768 -3168 -6768 -3184
WIRE -6240 -3168 -6240 -3184
WIRE -4592 -3152 -4640 -3152
WIRE -4480 -3152 -4512 -3152
WIRE -3376 -3152 -3424 -3152
WIRE -3264 -3152 -3296 -3152
WIRE -2240 -3152 -2288 -3152
WIRE -2128 -3152 -2160 -3152
WIRE -1104 -3152 -1152 -3152
WIRE -992 -3152 -1024 -3152
WIRE 16 -3152 -32 -3152
WIRE 128 -3152 96 -3152
WIRE -9200 -3136 -9200 -3168
WIRE -8640 -3136 -8640 -3168
WIRE -9536 -3120 -9536 -3152
WIRE -8912 -3120 -8912 -3152
WIRE -3888 -3120 -3888 -3248
WIRE -2672 -3120 -2672 -3248
WIRE -1536 -3120 -1536 -3248
WIRE -400 -3120 -400 -3248
WIRE 720 -3120 720 -3248
WIRE -9856 -3104 -9856 -3136
WIRE -4080 -3104 -4080 -3152
WIRE -3968 -3104 -3968 -3456
WIRE -3968 -3104 -4080 -3104
WIRE -3936 -3104 -3968 -3104
WIRE -2864 -3104 -2864 -3152
WIRE -2752 -3104 -2752 -3456
WIRE -2752 -3104 -2864 -3104
WIRE -2720 -3104 -2752 -3104
WIRE -1728 -3104 -1728 -3152
WIRE -1616 -3104 -1616 -3456
WIRE -1616 -3104 -1728 -3104
WIRE -1584 -3104 -1616 -3104
WIRE -592 -3104 -592 -3152
WIRE -496 -3104 -496 -3456
WIRE -496 -3104 -592 -3104
WIRE -448 -3104 -496 -3104
WIRE 528 -3104 528 -3152
WIRE 624 -3104 624 -3456
WIRE 624 -3104 528 -3104
WIRE 672 -3104 624 -3104
WIRE -4080 -3072 -4080 -3104
WIRE -2864 -3072 -2864 -3104
WIRE -1728 -3072 -1728 -3104
WIRE -592 -3072 -592 -3104
WIRE 528 -3072 528 -3104
WIRE 1520 -3072 1520 -3520
WIRE 1632 -3056 1632 -3376
WIRE 1632 -3056 1568 -3056
WIRE 1728 -3056 1728 -3280
WIRE 1728 -3056 1632 -3056
WIRE 1936 -3056 1936 -3264
WIRE 1936 -3056 1728 -3056
WIRE -4416 -3024 -4416 -3104
WIRE -3200 -3024 -3200 -3104
WIRE -2064 -3024 -2064 -3104
WIRE -928 -3024 -928 -3104
WIRE 192 -3024 192 -3104
WIRE 1728 -3024 1728 -3056
WIRE -5728 -2992 -5728 -3024
WIRE -5232 -2992 -5232 -3024
WIRE -7296 -2960 -7296 -2992
WIRE -6768 -2960 -6768 -2992
WIRE -6240 -2960 -6240 -2992
WIRE -9200 -2944 -9200 -2960
WIRE -8640 -2944 -8640 -2960
WIRE -9536 -2928 -9536 -2944
WIRE -8912 -2928 -8912 -2944
WIRE -4080 -2928 -4080 -2992
WIRE -2864 -2928 -2864 -2992
WIRE -1728 -2928 -1728 -2992
WIRE -592 -2928 -592 -2992
WIRE 528 -2928 528 -2992
WIRE 720 -2928 720 -3024
WIRE 1520 -2928 1520 -2976
WIRE 1520 -2928 720 -2928
WIRE -9856 -2912 -9856 -2928
WIRE 1728 -2912 1728 -2944
WIRE 1840 -2912 1840 -3296
WIRE 1840 -2912 1728 -2912
WIRE -5728 -2896 -5728 -2912
WIRE -5232 -2896 -5232 -2912
WIRE -4272 -2880 -4320 -2880
WIRE -4144 -2880 -4192 -2880
WIRE -3056 -2880 -3104 -2880
WIRE -2928 -2880 -2976 -2880
WIRE -1920 -2880 -1968 -2880
WIRE -1792 -2880 -1840 -2880
WIRE -784 -2880 -832 -2880
WIRE -656 -2880 -704 -2880
WIRE 336 -2880 288 -2880
WIRE 464 -2880 416 -2880
WIRE 1728 -2880 1728 -2912
WIRE -7296 -2864 -7296 -2880
WIRE -6768 -2864 -6768 -2880
WIRE -6240 -2864 -6240 -2880
WIRE -9200 -2832 -9200 -2864
WIRE -8640 -2832 -8640 -2864
WIRE 1520 -2832 1456 -2832
WIRE 1664 -2832 1600 -2832
WIRE -9536 -2816 -9536 -2848
WIRE -8912 -2816 -8912 -2848
WIRE -9856 -2800 -9856 -2832
WIRE -4080 -2768 -4080 -2832
WIRE -2864 -2768 -2864 -2832
WIRE -1728 -2768 -1728 -2832
WIRE -592 -2768 -592 -2832
WIRE 528 -2768 528 -2832
WIRE 1728 -2720 1728 -2784
WIRE -6752 -2656 -6752 -2688
WIRE -6464 -2656 -6464 -2688
WIRE -6192 -2656 -6192 -2688
WIRE -5888 -2656 -5888 -2688
WIRE -5616 -2656 -5616 -2688
WIRE -6752 -2560 -6752 -2576
WIRE -6464 -2560 -6464 -2576
WIRE -6192 -2560 -6192 -2576
WIRE -5888 -2560 -5888 -2576
WIRE -5616 -2560 -5616 -2576
WIRE -4080 -2496 -4416 -2496
WIRE -3968 -2496 -4080 -2496
WIRE -3888 -2496 -3888 -3024
WIRE -3888 -2496 -3968 -2496
WIRE -3200 -2496 -3888 -2496
WIRE -2864 -2496 -3200 -2496
WIRE -2768 -2496 -2864 -2496
WIRE -2672 -2496 -2672 -3024
WIRE -2672 -2496 -2768 -2496
WIRE -2064 -2496 -2672 -2496
WIRE -1728 -2496 -2064 -2496
WIRE -1616 -2496 -1728 -2496
WIRE -1536 -2496 -1536 -3024
WIRE -1536 -2496 -1616 -2496
WIRE -928 -2496 -1536 -2496
WIRE -592 -2496 -928 -2496
WIRE -480 -2496 -592 -2496
WIRE -400 -2496 -400 -3024
WIRE -400 -2496 -480 -2496
WIRE 192 -2496 -400 -2496
WIRE 528 -2496 192 -2496
WIRE 640 -2496 528 -2496
WIRE 720 -2496 720 -2928
WIRE 720 -2496 640 -2496
WIRE 1520 -2496 720 -2496
WIRE 1632 -2496 1520 -2496
WIRE 1728 -2496 1632 -2496
WIRE 1936 -2496 1728 -2496
WIRE -3888 -2464 -3888 -2496
WIRE -2672 -2464 -2672 -2496
WIRE -1536 -2464 -1536 -2496
WIRE -400 -2464 -400 -2496
WIRE 720 -2464 720 -2496
WIRE -4416 -2448 -4416 -2496
WIRE -3200 -2448 -3200 -2496
WIRE -2064 -2448 -2064 -2496
WIRE -928 -2448 -928 -2496
WIRE 192 -2448 192 -2496
WIRE 1632 -2416 1632 -2496
WIRE -4080 -2384 -4080 -2496
WIRE -2864 -2384 -2864 -2496
WIRE -1728 -2384 -1728 -2496
WIRE -592 -2384 -592 -2496
WIRE 528 -2384 528 -2496
WIRE -4416 -2336 -4416 -2368
WIRE -4144 -2336 -4416 -2336
WIRE -3200 -2336 -3200 -2368
WIRE -2928 -2336 -3200 -2336
WIRE -2064 -2336 -2064 -2368
WIRE -1792 -2336 -2064 -2336
WIRE -928 -2336 -928 -2368
WIRE -656 -2336 -928 -2336
WIRE 192 -2336 192 -2368
WIRE 464 -2336 192 -2336
WIRE 1728 -2336 1728 -2496
WIRE 1936 -2336 1936 -2496
WIRE -4416 -2304 -4416 -2336
WIRE -3888 -2304 -3888 -2384
WIRE -3200 -2304 -3200 -2336
WIRE -2672 -2304 -2672 -2384
WIRE -2064 -2304 -2064 -2336
WIRE -1536 -2304 -1536 -2384
WIRE -928 -2304 -928 -2336
WIRE -400 -2304 -400 -2384
WIRE 192 -2304 192 -2336
WIRE 720 -2304 720 -2384
WIRE 1888 -2272 1840 -2272
WIRE -4080 -2208 -4080 -2288
WIRE -2864 -2208 -2864 -2288
WIRE -1728 -2208 -1728 -2288
WIRE -592 -2208 -592 -2288
WIRE 528 -2208 528 -2288
WIRE -4416 -2176 -4416 -2224
WIRE -3200 -2176 -3200 -2224
WIRE -2064 -2176 -2064 -2224
WIRE -928 -2176 -928 -2224
WIRE 192 -2176 192 -2224
WIRE -4592 -2128 -4640 -2128
WIRE -4480 -2128 -4512 -2128
WIRE -3376 -2128 -3424 -2128
WIRE -3264 -2128 -3296 -2128
WIRE -2240 -2128 -2288 -2128
WIRE -2128 -2128 -2160 -2128
WIRE -1104 -2128 -1152 -2128
WIRE -992 -2128 -1024 -2128
WIRE 16 -2128 -32 -2128
WIRE 128 -2128 96 -2128
WIRE 2240 -2112 2240 -4560
WIRE -3888 -2096 -3888 -2224
WIRE -2672 -2096 -2672 -2224
WIRE -1536 -2096 -1536 -2224
WIRE -400 -2096 -400 -2224
WIRE 720 -2096 720 -2224
WIRE -4080 -2080 -4080 -2128
WIRE -3968 -2080 -3968 -2432
WIRE -3968 -2080 -4080 -2080
WIRE -3936 -2080 -3968 -2080
WIRE -2864 -2080 -2864 -2128
WIRE -2768 -2080 -2768 -2432
WIRE -2768 -2080 -2864 -2080
WIRE -2720 -2080 -2768 -2080
WIRE -1728 -2080 -1728 -2128
WIRE -1616 -2080 -1616 -2432
WIRE -1616 -2080 -1728 -2080
WIRE -1584 -2080 -1616 -2080
WIRE -592 -2080 -592 -2128
WIRE -480 -2080 -480 -2432
WIRE -480 -2080 -592 -2080
WIRE -448 -2080 -480 -2080
WIRE 528 -2080 528 -2128
WIRE 640 -2080 640 -2432
WIRE 640 -2080 528 -2080
WIRE 672 -2080 640 -2080
WIRE -4080 -2048 -4080 -2080
WIRE -2864 -2048 -2864 -2080
WIRE -1728 -2048 -1728 -2080
WIRE -592 -2048 -592 -2080
WIRE 528 -2048 528 -2080
WIRE 1520 -2048 1520 -2496
WIRE 1632 -2032 1632 -2352
WIRE 1632 -2032 1568 -2032
WIRE 1728 -2032 1728 -2256
WIRE 1728 -2032 1632 -2032
WIRE 1936 -2032 1936 -2240
WIRE 1936 -2032 1728 -2032
WIRE -4416 -2000 -4416 -2080
WIRE -3200 -2000 -3200 -2080
WIRE -2064 -2000 -2064 -2080
WIRE -928 -2000 -928 -2080
WIRE 192 -2000 192 -2080
WIRE 1728 -2000 1728 -2032
WIRE -4080 -1904 -4080 -1968
WIRE -2864 -1904 -2864 -1968
WIRE -1728 -1904 -1728 -1968
WIRE -592 -1904 -592 -1968
WIRE 528 -1904 528 -1968
WIRE 720 -1904 720 -2000
WIRE 1520 -1904 1520 -1952
WIRE 1520 -1904 720 -1904
WIRE 1728 -1888 1728 -1920
WIRE 1840 -1888 1840 -2272
WIRE 1840 -1888 1728 -1888
WIRE -4272 -1856 -4320 -1856
WIRE -4144 -1856 -4192 -1856
WIRE -3056 -1856 -3104 -1856
WIRE -2928 -1856 -2976 -1856
WIRE -1920 -1856 -1968 -1856
WIRE -1792 -1856 -1840 -1856
WIRE -784 -1856 -832 -1856
WIRE -656 -1856 -704 -1856
WIRE 336 -1856 288 -1856
WIRE 464 -1856 416 -1856
WIRE 1728 -1856 1728 -1888
WIRE 1520 -1808 1456 -1808
WIRE 1664 -1808 1600 -1808
WIRE -4080 -1744 -4080 -1808
WIRE -2864 -1744 -2864 -1808
WIRE -1728 -1744 -1728 -1808
WIRE -592 -1744 -592 -1808
WIRE 528 -1744 528 -1808
WIRE 1728 -1696 1728 -1760
WIRE -4080 -1456 -4416 -1456
WIRE -3984 -1456 -4080 -1456
WIRE -3888 -1456 -3888 -2000
WIRE -3888 -1456 -3984 -1456
WIRE -3200 -1456 -3888 -1456
WIRE -2864 -1456 -3200 -1456
WIRE -2720 -1456 -2864 -1456
WIRE -2672 -1456 -2672 -2000
WIRE -2672 -1456 -2720 -1456
WIRE -2064 -1456 -2672 -1456
WIRE -1728 -1456 -2064 -1456
WIRE -1600 -1456 -1728 -1456
WIRE -1536 -1456 -1536 -2000
WIRE -1536 -1456 -1600 -1456
WIRE -928 -1456 -1536 -1456
WIRE -592 -1456 -928 -1456
WIRE -480 -1456 -592 -1456
WIRE -400 -1456 -400 -2000
WIRE -400 -1456 -480 -1456
WIRE 192 -1456 -400 -1456
WIRE 528 -1456 192 -1456
WIRE 640 -1456 528 -1456
WIRE 720 -1456 720 -1904
WIRE 720 -1456 640 -1456
WIRE 1520 -1456 720 -1456
WIRE 1648 -1456 1520 -1456
WIRE 1728 -1456 1648 -1456
WIRE 1936 -1456 1728 -1456
WIRE -3888 -1424 -3888 -1456
WIRE -2672 -1424 -2672 -1456
WIRE -1536 -1424 -1536 -1456
WIRE -400 -1424 -400 -1456
WIRE 720 -1424 720 -1456
WIRE -4416 -1408 -4416 -1456
WIRE -3200 -1408 -3200 -1456
WIRE -2064 -1408 -2064 -1456
WIRE -928 -1408 -928 -1456
WIRE 192 -1408 192 -1456
WIRE 1648 -1376 1648 -1456
WIRE -4080 -1344 -4080 -1456
WIRE -2864 -1344 -2864 -1456
WIRE -1728 -1344 -1728 -1456
WIRE -592 -1344 -592 -1456
WIRE 528 -1344 528 -1456
WIRE -4416 -1296 -4416 -1328
WIRE -4144 -1296 -4416 -1296
WIRE -3200 -1296 -3200 -1328
WIRE -2928 -1296 -3200 -1296
WIRE -2064 -1296 -2064 -1328
WIRE -1792 -1296 -2064 -1296
WIRE -928 -1296 -928 -1328
WIRE -656 -1296 -928 -1296
WIRE 192 -1296 192 -1328
WIRE 464 -1296 192 -1296
WIRE 1728 -1296 1728 -1456
WIRE 1936 -1296 1936 -1456
WIRE -4416 -1264 -4416 -1296
WIRE -3888 -1264 -3888 -1344
WIRE -3200 -1264 -3200 -1296
WIRE -2672 -1264 -2672 -1344
WIRE -2064 -1264 -2064 -1296
WIRE -1536 -1264 -1536 -1344
WIRE -928 -1264 -928 -1296
WIRE -400 -1264 -400 -1344
WIRE 192 -1264 192 -1296
WIRE 720 -1264 720 -1344
WIRE 1888 -1232 1840 -1232
WIRE -4080 -1168 -4080 -1248
WIRE -2864 -1168 -2864 -1248
WIRE -1728 -1168 -1728 -1248
WIRE -592 -1168 -592 -1248
WIRE 528 -1168 528 -1248
WIRE -4416 -1136 -4416 -1184
WIRE -3200 -1136 -3200 -1184
WIRE -2064 -1136 -2064 -1184
WIRE -928 -1136 -928 -1184
WIRE 192 -1136 192 -1184
WIRE -4592 -1088 -4640 -1088
WIRE -4480 -1088 -4512 -1088
WIRE -3376 -1088 -3424 -1088
WIRE -3264 -1088 -3296 -1088
WIRE -2240 -1088 -2288 -1088
WIRE -2128 -1088 -2160 -1088
WIRE -1104 -1088 -1152 -1088
WIRE -992 -1088 -1024 -1088
WIRE 16 -1088 -32 -1088
WIRE 128 -1088 96 -1088
WIRE -3888 -1056 -3888 -1184
WIRE -2672 -1056 -2672 -1184
WIRE -1536 -1056 -1536 -1184
WIRE -400 -1056 -400 -1184
WIRE 720 -1056 720 -1184
WIRE -4080 -1040 -4080 -1088
WIRE -3984 -1040 -3984 -1392
WIRE -3984 -1040 -4080 -1040
WIRE -3936 -1040 -3984 -1040
WIRE -2864 -1040 -2864 -1088
WIRE -2720 -1040 -2720 -1392
WIRE -2720 -1040 -2864 -1040
WIRE -1728 -1040 -1728 -1088
WIRE -1600 -1040 -1600 -1392
WIRE -1600 -1040 -1728 -1040
WIRE -1584 -1040 -1600 -1040
WIRE -592 -1040 -592 -1088
WIRE -480 -1040 -480 -1392
WIRE -480 -1040 -592 -1040
WIRE -448 -1040 -480 -1040
WIRE 528 -1040 528 -1088
WIRE 640 -1040 640 -1392
WIRE 640 -1040 528 -1040
WIRE 672 -1040 640 -1040
WIRE -4080 -1008 -4080 -1040
WIRE -2864 -1008 -2864 -1040
WIRE -1728 -1008 -1728 -1040
WIRE -592 -1008 -592 -1040
WIRE 528 -1008 528 -1040
WIRE 1520 -1008 1520 -1456
WIRE 1648 -992 1648 -1312
WIRE 1648 -992 1568 -992
WIRE 1728 -992 1728 -1216
WIRE 1728 -992 1648 -992
WIRE 1936 -992 1936 -1200
WIRE 1936 -992 1728 -992
WIRE -4416 -960 -4416 -1040
WIRE -3200 -960 -3200 -1040
WIRE -2064 -960 -2064 -1040
WIRE -928 -960 -928 -1040
WIRE 192 -960 192 -1040
WIRE 1728 -960 1728 -992
WIRE -4080 -864 -4080 -928
WIRE -2864 -864 -2864 -928
WIRE -1728 -864 -1728 -928
WIRE -592 -864 -592 -928
WIRE 528 -864 528 -928
WIRE 720 -864 720 -960
WIRE 1520 -864 1520 -912
WIRE 1520 -864 720 -864
WIRE 1728 -848 1728 -880
WIRE 1840 -848 1840 -1232
WIRE 1840 -848 1728 -848
WIRE -4272 -816 -4320 -816
WIRE -4144 -816 -4192 -816
WIRE -3056 -816 -3104 -816
WIRE -2928 -816 -2976 -816
WIRE -1920 -816 -1968 -816
WIRE -1792 -816 -1840 -816
WIRE -784 -816 -832 -816
WIRE -656 -816 -704 -816
WIRE 336 -816 288 -816
WIRE 464 -816 416 -816
WIRE 1728 -816 1728 -848
WIRE 1520 -768 1456 -768
WIRE 1664 -768 1600 -768
WIRE -4080 -704 -4080 -768
WIRE -2864 -704 -2864 -768
WIRE -1728 -704 -1728 -768
WIRE -592 -704 -592 -768
WIRE 528 -704 528 -768
WIRE 1728 -656 1728 -720
WIRE -4080 -368 -4416 -368
WIRE -3984 -368 -4080 -368
WIRE -3888 -368 -3888 -960
WIRE -3888 -368 -3984 -368
WIRE -3200 -368 -3888 -368
WIRE -2864 -368 -3200 -368
WIRE -2752 -368 -2864 -368
WIRE -2672 -368 -2672 -960
WIRE -2672 -368 -2752 -368
WIRE -2064 -368 -2672 -368
WIRE -1728 -368 -2064 -368
WIRE -1616 -368 -1728 -368
WIRE -1536 -368 -1536 -960
WIRE -1536 -368 -1616 -368
WIRE -928 -368 -1536 -368
WIRE -592 -368 -928 -368
WIRE -464 -368 -592 -368
WIRE -400 -368 -400 -960
WIRE -400 -368 -464 -368
WIRE 192 -368 -400 -368
WIRE 528 -368 192 -368
WIRE 640 -368 528 -368
WIRE 720 -368 720 -864
WIRE 720 -368 640 -368
WIRE 1552 -368 720 -368
WIRE 1648 -368 1552 -368
WIRE 1728 -368 1648 -368
WIRE 1936 -368 1728 -368
WIRE -3888 -304 -3888 -368
WIRE -2672 -304 -2672 -368
WIRE -2064 -304 -2064 -368
WIRE -1536 -304 -1536 -368
WIRE -400 -304 -400 -368
WIRE 720 -304 720 -368
WIRE -4416 -288 -4416 -368
WIRE -3984 -288 -3984 -368
WIRE -3200 -288 -3200 -368
WIRE -2752 -288 -2752 -368
WIRE -1616 -288 -1616 -368
WIRE -928 -288 -928 -368
WIRE -464 -288 -464 -368
WIRE 192 -288 192 -368
WIRE 640 -288 640 -368
WIRE 1648 -288 1648 -368
WIRE 1728 -256 1728 -368
WIRE 1936 -240 1936 -368
WIRE -4080 -176 -4080 -368
WIRE -2864 -176 -2864 -368
WIRE -1728 -176 -1728 -368
WIRE -592 -176 -592 -368
WIRE 528 -176 528 -368
WIRE 1888 -176 1840 -176
WIRE -3888 -160 -3888 -224
WIRE -2672 -160 -2672 -224
WIRE -1536 -160 -1536 -224
WIRE -400 -160 -400 -224
WIRE 720 -160 720 -224
WIRE -4416 -128 -4416 -208
WIRE -4144 -128 -4416 -128
WIRE -3200 -128 -3200 -208
WIRE -2928 -128 -3200 -128
WIRE -2064 -128 -2064 -224
WIRE -1792 -128 -2064 -128
WIRE -928 -128 -928 -208
WIRE -656 -128 -928 -128
WIRE 192 -128 192 -208
WIRE 464 -128 192 -128
WIRE -4416 -96 -4416 -128
WIRE -3200 -96 -3200 -128
WIRE -2064 -96 -2064 -128
WIRE -928 -96 -928 -128
WIRE 192 -96 192 -128
WIRE 1552 -48 1552 -368
WIRE 1648 -32 1648 -224
WIRE 1648 -32 1600 -32
WIRE 1728 -32 1728 -176
WIRE 1728 -32 1648 -32
WIRE 1936 -32 1936 -144
WIRE 1936 -32 1728 -32
WIRE -4080 0 -4080 -80
WIRE -2864 0 -2864 -80
WIRE -1728 0 -1728 -80
WIRE -592 0 -592 -80
WIRE 528 0 528 -80
WIRE -3888 16 -3888 -80
WIRE -3856 16 -3888 16
WIRE -3760 16 -3776 16
WIRE -2672 16 -2672 -80
WIRE -2640 16 -2672 16
WIRE -2544 16 -2560 16
WIRE -1536 16 -1536 -80
WIRE -1504 16 -1536 16
WIRE -1408 16 -1424 16
WIRE -400 16 -400 -80
WIRE -368 16 -400 16
WIRE -272 16 -288 16
WIRE 720 16 720 -80
WIRE 752 16 720 16
WIRE 848 16 832 16
WIRE -4416 32 -4416 -16
WIRE -3200 32 -3200 -16
WIRE -2064 32 -2064 -16
WIRE -928 32 -928 -16
WIRE 192 32 192 -16
WIRE 1728 64 1728 -32
WIRE -4592 80 -4640 80
WIRE -4480 80 -4512 80
WIRE -3760 80 -3760 16
WIRE -3376 80 -3424 80
WIRE -3264 80 -3296 80
WIRE -2544 80 -2544 16
WIRE -2240 80 -2288 80
WIRE -2128 80 -2160 80
WIRE -1408 80 -1408 16
WIRE -1104 80 -1152 80
WIRE -992 80 -1024 80
WIRE -272 80 -272 16
WIRE 16 80 -32 80
WIRE 128 80 96 80
WIRE 848 80 848 16
WIRE -3888 112 -3888 16
WIRE -2672 112 -2672 16
WIRE -1536 112 -1536 16
WIRE -400 112 -400 16
WIRE 720 112 720 16
WIRE -4080 128 -4080 80
WIRE -3984 128 -3984 -224
WIRE -3984 128 -4080 128
WIRE -3936 128 -3984 128
WIRE -2864 128 -2864 80
WIRE -2752 128 -2752 -224
WIRE -2752 128 -2864 128
WIRE -2720 128 -2752 128
WIRE -1728 128 -1728 80
WIRE -1616 128 -1616 -224
WIRE -1616 128 -1728 128
WIRE -1584 128 -1616 128
WIRE -592 128 -592 80
WIRE -464 128 -464 -224
WIRE -464 128 -592 128
WIRE -448 128 -464 128
WIRE 528 128 528 80
WIRE 640 128 640 -224
WIRE 640 128 528 128
WIRE 672 128 640 128
WIRE -4080 160 -4080 128
WIRE -2864 160 -2864 128
WIRE -1728 160 -1728 128
WIRE -592 160 -592 128
WIRE 528 160 528 128
WIRE -4416 208 -4416 128
WIRE -3200 208 -3200 128
WIRE -2064 208 -2064 128
WIRE -928 208 -928 128
WIRE 192 208 192 128
WIRE 1728 208 1728 144
WIRE 1840 208 1840 -176
WIRE 1840 208 1728 208
WIRE 720 240 720 208
WIRE 1552 240 1552 48
WIRE 1552 240 720 240
WIRE 1728 272 1728 208
WIRE -4080 304 -4080 240
WIRE -2864 304 -2864 240
WIRE -1728 304 -1728 240
WIRE -592 304 -592 240
WIRE 528 304 528 240
WIRE 1536 320 1488 320
WIRE 1664 320 1616 320
WIRE -4272 352 -4320 352
WIRE -4144 352 -4192 352
WIRE -3056 352 -3104 352
WIRE -2928 352 -2976 352
WIRE -1920 352 -1968 352
WIRE -1792 352 -1840 352
WIRE -784 352 -832 352
WIRE -656 352 -704 352
WIRE 336 352 288 352
WIRE 464 352 416 352
WIRE 1728 432 1728 368
WIRE -4080 464 -4080 400
WIRE -2864 464 -2864 400
WIRE -1728 464 -1728 400
WIRE -592 464 -592 400
WIRE 528 464 528 400
WIRE -3888 560 -3888 208
WIRE -2672 560 -2672 208
WIRE -2672 560 -3888 560
WIRE -1536 560 -1536 208
WIRE -1536 560 -2672 560
WIRE -400 560 -400 208
WIRE -400 560 -1536 560
WIRE 720 560 720 240
WIRE 720 560 -400 560
WIRE 2240 560 2240 -2032
WIRE 2240 560 720 560
FLAG -928 208 0
FLAG -592 464 0
FLAG -272 80 0
FLAG 192 208 0
FLAG 528 464 0
FLAG 848 80 0
FLAG -928 -960 0
FLAG -592 -704 0
FLAG 192 -960 0
FLAG 528 -704 0
FLAG 2240 560 out_neg
FLAG 1936 -368 out_1
FLAG 1728 432 0
FLAG 1488 320 Vc1
FLAG 1728 -656 0
FLAG 1456 -768 Vc2
FLAG -928 -2000 0
FLAG -592 -1744 0
FLAG 192 -2000 0
FLAG 528 -1744 0
FLAG -1968 -1856 Vc33_neg
FLAG 288 -1856 Vc35_neg
FLAG -2288 -2128 Vc33_pos
FLAG -32 -2128 Vc35_pos
FLAG 1728 -1696 0
FLAG 1456 -1808 Vc3
FLAG -928 -3024 0
FLAG -592 -2768 0
FLAG 192 -3024 0
FLAG 528 -2768 0
FLAG -832 -2880 Vc44_neg
FLAG 288 -2880 Vc45_neg
FLAG -1152 -3152 Vc44_pos
FLAG -32 -3152 Vc45_pos
FLAG 1728 -2720 0
FLAG 1456 -2832 Vc4
FLAG -2064 208 0
FLAG -1728 464 0
FLAG -1408 80 0
FLAG -2064 -960 0
FLAG -1728 -704 0
FLAG -2064 -2000 0
FLAG -1728 -1744 0
FLAG -2064 -3024 0
FLAG -1728 -2768 0
FLAG -1968 -2880 Vc43_neg
FLAG -2288 -3152 Vc43_pos
FLAG -928 -4064 0
FLAG -592 -3808 0
FLAG 192 -4064 0
FLAG 528 -3808 0
FLAG -832 -3920 Vc54_neg
FLAG 288 -3920 Vc55_neg
FLAG -1152 -4192 Vc54_pos
FLAG -32 -4192 Vc55_pos
FLAG 1728 -3760 0
FLAG 1456 -3872 Vc5
FLAG -2064 -4064 0
FLAG -1728 -3808 0
FLAG -1968 -3920 Vc53_neg
FLAG -2288 -4192 Vc53_pos
FLAG -3200 208 0
FLAG -2864 464 0
FLAG -2544 80 0
FLAG -3200 -960 0
FLAG -2864 -704 0
FLAG -3200 -2000 0
FLAG -2864 -1744 0
FLAG -3104 -1856 Vc32_neg
FLAG -3424 -2128 Vc32_pos
FLAG -3200 -3024 0
FLAG -2864 -2768 0
FLAG -3104 -2880 Vc42_neg
FLAG -3424 -3152 Vc42_pos
FLAG -4416 208 0
FLAG -4080 464 0
FLAG -3760 80 0
FLAG -4416 -960 0
FLAG -4080 -704 0
FLAG -4640 -1088 Vc21_pos
FLAG -4416 -2000 0
FLAG -4080 -1744 0
FLAG -4320 -1856 Vc31_neg
FLAG -4640 -2128 Vc31_pos
FLAG -4416 -3024 0
FLAG -4080 -2768 0
FLAG -4320 -2880 Vc41_neg
FLAG -4640 -3152 Vc41_pos
FLAG -3200 -4064 0
FLAG -2864 -3808 0
FLAG -3104 -3920 Vc52_neg
FLAG -3424 -4192 Vc52_pos
FLAG -4416 -4064 0
FLAG -4080 -3808 0
FLAG 2240 -4560 out_pos
FLAG 1936 -1456 out_2
FLAG 1936 -2496 out_3
FLAG 1936 -3520 out_4
FLAG -7296 -4192 0
FLAG -9856 -4128 0
FLAG -4352 -3920 Vc51_neg
FLAG -7296 -4320 Vc51_pos
FLAG -9856 -4256 Vc51_neg
FLAG -6768 -4192 0
FLAG -9536 -4144 0
FLAG -6768 -4320 Vc52_pos
FLAG -9536 -4272 Vc52_neg
FLAG -6240 -4192 0
FLAG -9200 -4160 0
FLAG -6240 -4320 Vc53_pos
FLAG -9200 -4288 Vc53_neg
FLAG -5728 -4224 0
FLAG -8912 -4144 0
FLAG -5728 -4352 Vc54_pos
FLAG -8912 -4272 Vc54_neg
FLAG -5232 -4224 0
FLAG -8640 -4160 0
FLAG -5232 -4352 Vc55_pos
FLAG -8640 -4288 Vc55_neg
FLAG -7296 -3872 0
FLAG -9856 -3808 0
FLAG -7296 -4000 Vc41_pos
FLAG -9856 -3936 Vc41_neg
FLAG -6768 -3872 0
FLAG -9536 -3824 0
FLAG -6768 -4000 Vc42_pos
FLAG -9536 -3952 Vc42_neg
FLAG -6240 -3872 0
FLAG -9200 -3840 0
FLAG -6240 -4000 Vc43_pos
FLAG -9200 -3968 Vc43_neg
FLAG -5728 -3904 0
FLAG -8912 -3824 0
FLAG -5728 -4032 Vc44_pos
FLAG -8912 -3952 Vc44_neg
FLAG -5232 -3904 0
FLAG -8640 -3840 0
FLAG -5232 -4032 Vc45_pos
FLAG -8640 -3968 Vc45_neg
FLAG -7296 -3488 0
FLAG -9856 -3424 0
FLAG -7296 -3616 Vc31_pos
FLAG -9856 -3552 Vc31_neg
FLAG -6768 -3488 0
FLAG -9536 -3440 0
FLAG -6768 -3616 Vc32_pos
FLAG -9536 -3568 Vc32_neg
FLAG -6240 -3488 0
FLAG -9200 -3456 0
FLAG -6240 -3616 Vc33_pos
FLAG -9200 -3584 Vc33_neg
FLAG -5728 -3520 0
FLAG -8912 -3440 0
FLAG -5728 -3648 Vc34_pos
FLAG -8912 -3568 Vc34_neg
FLAG -5232 -3520 0
FLAG -8640 -3456 0
FLAG -5232 -3648 Vc35_pos
FLAG -8640 -3584 Vc35_neg
FLAG -7296 -3168 0
FLAG -9856 -3104 0
FLAG -7296 -3296 Vc21_pos
FLAG -9856 -3232 Vc21_neg
FLAG -6768 -3168 0
FLAG -9536 -3120 0
FLAG -6768 -3296 Vc22_pos
FLAG -9536 -3248 Vc22_neg
FLAG -6240 -3168 0
FLAG -9200 -3136 0
FLAG -6240 -3296 Vc23_pos
FLAG -9200 -3264 Vc23_neg
FLAG -5728 -3200 0
FLAG -8912 -3120 0
FLAG -5728 -3328 Vc24_pos
FLAG -8912 -3248 Vc24_neg
FLAG -5232 -3200 0
FLAG -8640 -3136 0
FLAG -5232 -3328 Vc25_pos
FLAG -8640 -3264 Vc25_neg
FLAG -7296 -2864 0
FLAG -9856 -2800 0
FLAG -7296 -2992 Vc11_pos
FLAG -9856 -2928 Vc11_neg
FLAG -6768 -2864 0
FLAG -9536 -2816 0
FLAG -6768 -2992 Vc12_pos
FLAG -9536 -2944 Vc12_neg
FLAG -6240 -2864 0
FLAG -9200 -2832 0
FLAG -6240 -2992 Vc13_pos
FLAG -9200 -2960 Vc13_neg
FLAG -5728 -2896 0
FLAG -8912 -2816 0
FLAG -5728 -3024 Vc14_pos
FLAG -8912 -2944 Vc14_neg
FLAG -5232 -2896 0
FLAG -8640 -2832 0
FLAG -5232 -3024 Vc15_pos
FLAG -8640 -2960 Vc15_neg
FLAG -4640 -4192 Vc51_pos
FLAG -1152 -2128 Vc34_pos
FLAG -832 -1856 Vc34_neg
FLAG -4320 -816 Vc21_neg
FLAG -3424 -1088 Vc22_pos
FLAG -3104 -816 Vc22_neg
FLAG -2288 -1088 Vc23_pos
FLAG -1152 -1088 Vc24_pos
FLAG -1968 -816 Vc23_neg
FLAG -832 -816 Vc24_neg
FLAG -32 -1088 Vc25_pos
FLAG 288 -816 Vc25_neg