Version 4.1
SHEET 1 4956 680
WIRE 1744 -1392 1712 -1392
WIRE 1520 -1152 1520 -1232
WIRE 1520 -1056 1520 -1088
WIRE 1520 -832 1520 -976
WIRE 2688 -816 2352 -816
WIRE 3072 -816 2688 -816
WIRE 3904 -816 3072 -816
WIRE 4240 -816 3904 -816
WIRE 4448 -816 4240 -816
WIRE 2096 -800 1792 -800
WIRE 1712 -784 1712 -800
WIRE 1712 -784 1584 -784
WIRE 3072 -752 3072 -816
WIRE 2352 -736 2352 -816
WIRE 1520 -720 1520 -736
WIRE 1520 -720 1488 -720
WIRE 4240 -704 4240 -816
WIRE -224 -688 -224 -720
WIRE 560 -640 560 -688
WIRE 2688 -624 2688 -816
WIRE 3072 -608 3072 -672
WIRE 2352 -576 2352 -656
WIRE 2624 -576 2352 -576
WIRE 2352 -544 2352 -576
WIRE 4816 -544 4816 -624
WIRE 3904 -496 3904 -816
WIRE 4240 -480 4240 -624
WIRE 4240 -480 3952 -480
WIRE 2688 -448 2688 -528
WIRE 4816 -448 4816 -480
WIRE 3072 -432 3072 -528
WIRE 3200 -432 3072 -432
WIRE 3328 -432 3296 -432
WIRE 2352 -416 2352 -464
WIRE 4240 -400 4240 -480
WIRE 2096 -368 2096 -800
WIRE 2096 -368 2032 -368
WIRE 2160 -368 2096 -368
WIRE 2176 -368 2160 -368
WIRE 2288 -368 2256 -368
WIRE 3280 -368 3280 -384
WIRE 3280 -368 2928 -368
WIRE 1520 -352 1152 -352
WIRE 1568 -352 1520 -352
WIRE 1744 -352 1568 -352
WIRE 2032 -352 2032 -368
WIRE 2032 -352 1824 -352
WIRE 3328 -352 3328 -432
WIRE 3072 -336 3072 -432
WIRE 2688 -320 2688 -368
WIRE 2928 -320 2928 -368
WIRE 2928 -320 2688 -320
WIRE 3024 -320 2928 -320
WIRE 2688 -288 2688 -320
WIRE 1152 -240 1152 -352
WIRE 2352 -240 2352 -320
WIRE 4816 -224 4816 -368
WIRE 3072 -208 3072 -240
WIRE 3904 -208 3904 -400
WIRE 3904 -208 3072 -208
WIRE 4240 -176 4240 -320
WIRE 4752 -176 4736 -176
WIRE 1520 -160 1520 -352
WIRE 2688 -144 2688 -208
WIRE 3712 -128 3696 -128
WIRE 3872 -128 3776 -128
WIRE 3888 -128 3872 -128
WIRE 4176 -128 3968 -128
WIRE 3712 -112 3696 -112
WIRE 4816 -112 4816 -128
WIRE 4848 -112 4816 -112
WIRE 2496 -96 2480 -96
WIRE 2624 -96 2576 -96
WIRE 1152 -80 1152 -160
WIRE 2160 -64 2160 -368
WIRE 3696 -64 3696 -112
WIRE 1520 -16 1520 -80
WIRE 4240 -16 4240 -80
WIRE 2688 16 2688 -48
WIRE 3872 32 3872 -128
WIRE 4656 32 4656 -176
WIRE 4656 32 3872 32
WIRE 2288 112 2224 112
WIRE 2160 224 2160 16
WIRE 2224 224 2224 112
WIRE 2224 224 2160 224
WIRE 2336 224 2336 192
WIRE 2480 224 2480 -96
WIRE 2480 224 2336 224
WIRE 2336 256 2336 224
WIRE 2224 336 2224 224
WIRE 2288 336 2224 336
WIRE 2336 448 2336 352
FLAG 1152 -80 0
FLAG -224 -688 0
FLAG 560 -640 0
FLAG 560 -768 Vcc
FLAG -224 -800 PULSO
FLAG 1520 -16 0
FLAG 2352 -240 0
FLAG 2688 16 0
FLAG 2032 -368 VcCELDA
FLAG 4448 -816 out_1
FLAG 4240 -16 0
FLAG 3328 -352 0
FLAG 4848 -112 0
FLAG 4816 -624 Vcc
FLAG 3696 -64 0
FLAG 3696 -128 VcCELDA
FLAG 1488 -720 0
FLAG 1520 -1232 Vcc
FLAG 2336 448 0
FLAG 2336 96 Vcc
FLAG 1568 -352 salida_del_shift_register
DATAFLAG 2272 112 "$-V(N001)"
SYMBOL voltage -224 -816 R0
WINDOW 123 0 0 Left 0
WINDOW 39 0 0 Left 0
SYMATTR InstName vcontrol1
SYMATTR Value PULSE(0 5 0 1p 1p 10m 20m)
SYMBOL voltage 560 -784 R0
WINDOW 123 0 0 Left 0
WINDOW 39 0 0 Left 0
SYMATTR InstName vcc1
SYMATTR Value 5
SYMBOL res 1504 -176 R0
SYMATTR InstName R3
SYMATTR Value 10K
SYMBOL npn 2624 -144 R0
SYMATTR InstName Q1
SYMATTR Value MMBT2222A
SYMBOL res 2672 -304 R0
SYMATTR InstName R4
SYMATTR Value 33k
SYMBOL res 2672 -464 R0
SYMATTR InstName R5
SYMATTR Value 4.7k
SYMBOL npn 2288 -416 R0
SYMATTR InstName Q2
SYMATTR Value MMBT2222A
SYMBOL res 2336 -560 R0
SYMATTR InstName R6
SYMATTR Value 1k
SYMBOL res 2336 -752 R0
SYMATTR InstName R7
SYMATTR Value 10k
SYMBOL res 2592 -112 R90
WINDOW 0 0 56 VBottom 2
WINDOW 3 32 56 VTop 2
SYMATTR InstName R8
SYMATTR Value 20k
SYMBOL voltage 3072 -624 R0
WINDOW 123 0 0 Left 0
WINDOW 39 0 0 Left 0
SYMATTR InstName Vcell1
SYMATTR Value 3.3
SYMBOL pnp 2624 -528 M180
SYMATTR InstName Q3
SYMATTR Value MMBT2907A
SYMBOL nmos 3024 -240 M180
SYMATTR InstName S1
SYMATTR Value IRLB8721
SYMATTR Prefix X
SYMBOL res 2272 -384 R90
WINDOW 0 0 56 VBottom 2
WINDOW 3 32 56 VTop 2
SYMATTR InstName R9
SYMATTR Value 20k
SYMBOL res 3056 -768 R0
SYMATTR InstName Rout1
SYMATTR Value 1m
SYMBOL npn 4176 -176 R0
SYMATTR InstName Q4
SYMATTR Value MMBT2222A
SYMBOL res 3984 -144 R90
WINDOW 0 0 56 VBottom 2
WINDOW 3 32 56 VTop 2
SYMATTR InstName R10
SYMATTR Value 20k
SYMBOL res 4224 -720 R0
SYMATTR InstName R11
SYMATTR Value 47k
SYMBOL nmos 3200 -384 R270
SYMATTR InstName Sgnd1
SYMATTR Value IRLB8721
SYMATTR Prefix X
SYMBOL pmos 3952 -400 R180
SYMATTR InstName S2
SYMATTR Value FDMS6681Z
SYMATTR Prefix X
SYMBOL npn 4752 -224 R0
SYMATTR InstName Q6
SYMATTR Value MMBT2222A
SYMBOL res 4800 -464 R0
SYMATTR InstName R14
SYMATTR Value 1k
SYMBOL res 4640 -192 M90
WINDOW 0 0 56 VBottom 2
WINDOW 3 32 56 VTop 2
SYMATTR InstName R15
SYMATTR Value 20k
SYMBOL LED 4832 -544 M0
SYMATTR InstName D2
SYMBOL res 4224 -416 R0
SYMATTR InstName R16
SYMATTR Value 30k
SYMBOL Digital\\inv 3712 -192 R0
SYMATTR InstName A2
SYMBOL npn 1584 -832 M0
SYMATTR InstName Q7
SYMATTR Value MMBT2222A
SYMBOL res 1536 -1072 M0
SYMATTR InstName R1
SYMATTR Value 1k
SYMBOL LED 1504 -1152 R0
SYMATTR InstName D3
SYMBOL res 1808 -816 R90
WINDOW 0 0 56 VBottom 2
WINDOW 3 32 56 VTop 2
SYMATTR InstName R12
SYMATTR Value 20k
SYMBOL pmos 2288 192 M180
SYMATTR InstName M3
SYMATTR Value AO3401A
SYMATTR Prefix X
SYMBOL nmos 2288 256 R0
SYMATTR InstName M4
SYMATTR Value AO3400
SYMATTR Prefix X
SYMBOL voltage 2160 -80 R0
WINDOW 123 0 0 Left 0
WINDOW 39 0 0 Left 0
SYMATTR InstName V1
SYMATTR Value 0
SYMBOL voltage 1152 -256 R0
WINDOW 123 0 0 Left 0
WINDOW 39 0 0 Left 0
SYMATTR InstName V2
SYMATTR Value 5
SYMBOL res 1840 -368 R90
WINDOW 0 0 56 VBottom 2
WINDOW 3 32 56 VTop 2
SYMATTR InstName R2
SYMATTR Value 330
TEXT 424 -1456 Left 2 !.include AO3400.lib\n.include AO3401A.sub\n.include irlml6402.spi
TEXT 816 -928 Left 2 !.tran 0 40m 0 10u uic
TEXT 696 8 Left 2 ;para habilitar la salida del sr, ~OE tiene que estar a tierra
TEXT 408 -1648 Left 2 ;.tran 0 40m 0 10u
TEXT 408 -1896 Left 2 !.MODEL MMBT2222A  NPN (IS=25.4f NF=1.00 BF=274 VAF=114 IKF=0.121 ISE=14.3p NE=2.00 BR=4.00 NR=1.00 VAR=24.0 IKR=0.300 RE=0.219 RB=0.877 RC=87.7m XTB=1.5 CJE=27.6p VJE=1.10 MJE=0.500 CJC=14.2p VJC=0.300 MJC=0.300 TF=622p TR=124n EG=1.12)\n.MODEL MMBT2907A  PNP (IS=60.7f NF=1.00 BF=312 VAF=139 IKF=0.219 ISE=26.0p NE=2.00 BR=4.00 NR=1.00 VAR=20.0 IKR=0.540 RE=85.8m RB=0.343 RC=34.3m XTB=1.5 CJE=50.4p VJE=1.10 MJE=0.500 CJC=23.1p VJC=0.300 MJC=0.300 TF=758p TR=123n EG=1.12)\n.model AONS32304 VDMOS(Kp=239 Rs=0.42m Rd=1.2m Rg=3.0 Vto=2.16 VtoTc=-2.8m Bex=-2.07 mtriode=1.1 Ksubthres=0.1 Lambda=0.158 Cgdmax=1420p Cgdmin=288p Cgs=5352p tt=19n A=0.7 Is=2.35E-11 N=1.017 Eg=1.07 Rb=0.1m Trb1=-1 BV=33 IBV=250u M=0.456 Vj=0.56 Cjo=1090.0pF mfg=AOS Vds=30 Ron=1.8m Qg=40n)\n.model MMBFJ201 NJF(BETA=0.000896 IS=3E-12 VTO=-0.794 LAMBDA=0.02 RD=0.001 RS=0.0013)
TEXT 408 -1760 Left 2 !.inc AO3401A.sub\n.inc IRLB8721.sub
TEXT 408 -1704 Left 2 !.inc 1N4736A.sub
TEXT 416 -1592 Left 2 ;.options plotwinsize=0\n.options numdgt=6\n.options reltol=0.001 abstol=1u\n.options solver=alternate
TEXT 408 -1680 Left 2 !.inc FDMS6681Z.lib
TEXT 416 -1616 Left 2 !.inc 1N4730A.sub
TEXT 416 -1936 Left 2 !.model LED_RED D(Is=2e-9 N=2.2 Rs=10 Bv=5 Ibv=0.1 Cjo=20p M=0.4 Vj=0.65)
