Version 4.1
SHEET 1 7672 2128
WIRE -1280 -4640 -1616 -4640
WIRE -880 -4640 -1280 -4640
WIRE 208 -4640 -880 -4640
WIRE 544 -4640 208 -4640
WIRE 928 -4640 544 -4640
WIRE 1728 -4640 928 -4640
WIRE 2096 -4640 1728 -4640
WIRE 2992 -4640 2096 -4640
WIRE -880 -4608 -880 -4640
WIRE 928 -4608 928 -4640
WIRE -1616 -4592 -1616 -4640
WIRE 208 -4592 208 -4640
WIRE -1280 -4528 -1280 -4640
WIRE 544 -4528 544 -4640
WIRE -1616 -4480 -1616 -4512
WIRE -1344 -4480 -1616 -4480
WIRE 208 -4480 208 -4512
WIRE 480 -4480 208 -4480
WIRE 2096 -4480 2096 -4640
WIRE -1616 -4448 -1616 -4480
WIRE -880 -4448 -880 -4528
WIRE 208 -4448 208 -4480
WIRE 928 -4448 928 -4528
WIRE -2032 -4368 -2032 -4448
WIRE -208 -4368 -208 -4448
WIRE 2704 -4368 2704 -4448
WIRE -1280 -4352 -1280 -4432
WIRE 544 -4352 544 -4432
WIRE -1616 -4320 -1616 -4368
WIRE 208 -4320 208 -4368
WIRE -2032 -4272 -2032 -4304
WIRE -1824 -4272 -1840 -4272
WIRE -1792 -4272 -1824 -4272
WIRE -1680 -4272 -1712 -4272
WIRE -208 -4272 -208 -4304
WIRE 0 -4272 -16 -4272
WIRE 32 -4272 0 -4272
WIRE 144 -4272 112 -4272
WIRE 2704 -4272 2704 -4304
WIRE -880 -4240 -880 -4368
WIRE 928 -4240 928 -4368
WIRE -1280 -4224 -1280 -4272
WIRE -928 -4224 -1280 -4224
WIRE 544 -4224 544 -4272
WIRE 880 -4224 544 -4224
WIRE -1280 -4192 -1280 -4224
WIRE 544 -4192 544 -4224
WIRE 1728 -4192 1728 -4640
WIRE 2096 -4176 2096 -4400
WIRE 2096 -4176 1776 -4176
WIRE -1616 -4144 -1616 -4224
WIRE 208 -4144 208 -4224
WIRE 2096 -4144 2096 -4176
WIRE -2032 -4048 -2032 -4192
WIRE -1280 -4048 -1280 -4112
WIRE -208 -4048 -208 -4192
WIRE 544 -4048 544 -4112
WIRE 928 -4048 928 -4144
WIRE 1728 -4048 1728 -4096
WIRE 1728 -4048 928 -4048
WIRE 2704 -4048 2704 -4192
WIRE -1824 -4000 -1824 -4272
WIRE -1824 -4000 -1888 -4000
WIRE -1616 -4000 -1824 -4000
WIRE -1472 -4000 -1552 -4000
WIRE -1344 -4000 -1392 -4000
WIRE 0 -4000 0 -4272
WIRE 0 -4000 -64 -4000
WIRE 208 -4000 0 -4000
WIRE 352 -4000 272 -4000
WIRE 480 -4000 432 -4000
WIRE 2096 -4000 2096 -4064
WIRE 2544 -4000 2496 -4000
WIRE 2640 -4000 2624 -4000
WIRE -1616 -3952 -1616 -3984
WIRE 208 -3952 208 -3984
WIRE 1696 -3952 1664 -3952
WIRE 1728 -3952 1696 -3952
WIRE 2032 -3952 1808 -3952
WIRE -2032 -3936 -2032 -3952
WIRE -2032 -3936 -2064 -3936
WIRE -208 -3936 -208 -3952
WIRE -208 -3936 -240 -3936
WIRE 2704 -3936 2704 -3952
WIRE 2736 -3936 2704 -3936
WIRE -1280 -3888 -1280 -3952
WIRE 544 -3888 544 -3952
WIRE -880 -3856 -880 -4144
WIRE 928 -3840 928 -4048
WIRE 2096 -3840 2096 -3904
WIRE 1696 -3776 1696 -3952
WIRE 2496 -3776 2496 -4000
WIRE 2496 -3776 1696 -3776
WIRE -1296 -3568 -1632 -3568
WIRE -896 -3568 -1296 -3568
WIRE -880 -3568 -880 -3776
WIRE -880 -3568 -896 -3568
WIRE 192 -3568 -880 -3568
WIRE 528 -3568 192 -3568
WIRE 912 -3568 528 -3568
WIRE 928 -3568 928 -3760
WIRE 928 -3568 912 -3568
WIRE 1712 -3568 928 -3568
WIRE 2080 -3568 1712 -3568
WIRE -896 -3536 -896 -3568
WIRE 912 -3536 912 -3568
WIRE -1632 -3520 -1632 -3568
WIRE 192 -3520 192 -3568
WIRE -1296 -3456 -1296 -3568
WIRE 528 -3456 528 -3568
WIRE -1632 -3408 -1632 -3440
WIRE -1360 -3408 -1632 -3408
WIRE 192 -3408 192 -3440
WIRE 464 -3408 192 -3408
WIRE 2080 -3408 2080 -3568
WIRE -1632 -3376 -1632 -3408
WIRE -896 -3376 -896 -3456
WIRE 192 -3376 192 -3408
WIRE 912 -3376 912 -3456
WIRE -2048 -3296 -2048 -3376
WIRE -224 -3296 -224 -3376
WIRE 2688 -3296 2688 -3376
WIRE -1296 -3280 -1296 -3360
WIRE 528 -3280 528 -3360
WIRE -1632 -3248 -1632 -3296
WIRE 192 -3248 192 -3296
WIRE -2048 -3200 -2048 -3232
WIRE -1840 -3200 -1856 -3200
WIRE -1808 -3200 -1840 -3200
WIRE -1696 -3200 -1728 -3200
WIRE -224 -3200 -224 -3232
WIRE -16 -3200 -32 -3200
WIRE 16 -3200 -16 -3200
WIRE 128 -3200 96 -3200
WIRE 2688 -3200 2688 -3232
WIRE -896 -3168 -896 -3296
WIRE 912 -3168 912 -3296
WIRE -1296 -3152 -1296 -3200
WIRE -944 -3152 -1296 -3152
WIRE 528 -3152 528 -3200
WIRE 864 -3152 528 -3152
WIRE -1296 -3120 -1296 -3152
WIRE 528 -3120 528 -3152
WIRE 1712 -3120 1712 -3568
WIRE 2080 -3104 2080 -3328
WIRE 2080 -3104 1760 -3104
WIRE -1632 -3072 -1632 -3152
WIRE 192 -3072 192 -3152
WIRE 2080 -3072 2080 -3104
WIRE -2048 -2976 -2048 -3120
WIRE -1296 -2976 -1296 -3040
WIRE -224 -2976 -224 -3120
WIRE 528 -2976 528 -3040
WIRE 912 -2976 912 -3072
WIRE 1712 -2976 1712 -3024
WIRE 1712 -2976 912 -2976
WIRE 2688 -2976 2688 -3120
WIRE -1840 -2928 -1840 -3200
WIRE -1840 -2928 -1904 -2928
WIRE -1632 -2928 -1840 -2928
WIRE -1488 -2928 -1568 -2928
WIRE -1360 -2928 -1408 -2928
WIRE -16 -2928 -16 -3200
WIRE -16 -2928 -80 -2928
WIRE 192 -2928 -16 -2928
WIRE 336 -2928 256 -2928
WIRE 464 -2928 416 -2928
WIRE 2080 -2928 2080 -2992
WIRE 2528 -2928 2480 -2928
WIRE 2624 -2928 2608 -2928
WIRE -1632 -2880 -1632 -2912
WIRE 192 -2880 192 -2912
WIRE 1680 -2880 1648 -2880
WIRE 1712 -2880 1680 -2880
WIRE 2016 -2880 1792 -2880
WIRE -2048 -2864 -2048 -2880
WIRE -2048 -2864 -2080 -2864
WIRE -224 -2864 -224 -2880
WIRE -224 -2864 -256 -2864
WIRE 2688 -2864 2688 -2880
WIRE 2720 -2864 2688 -2864
WIRE -1296 -2816 -1296 -2880
WIRE 528 -2816 528 -2880
WIRE -896 -2784 -896 -3072
WIRE 912 -2768 912 -2976
WIRE 2080 -2768 2080 -2832
WIRE 1680 -2704 1680 -2880
WIRE 2480 -2704 2480 -2928
WIRE 2480 -2704 1680 -2704
WIRE -1296 -2512 -1632 -2512
WIRE -896 -2512 -896 -2704
WIRE -896 -2512 -1296 -2512
WIRE 192 -2512 -896 -2512
WIRE 528 -2512 192 -2512
WIRE 912 -2512 912 -2688
WIRE 912 -2512 528 -2512
WIRE 1712 -2512 912 -2512
WIRE 2080 -2512 1712 -2512
WIRE 2992 -2512 2992 -4640
WIRE -896 -2480 -896 -2512
WIRE 912 -2480 912 -2512
WIRE -1632 -2464 -1632 -2512
WIRE 192 -2464 192 -2512
WIRE -1296 -2400 -1296 -2512
WIRE 528 -2400 528 -2512
WIRE -1632 -2352 -1632 -2384
WIRE -1360 -2352 -1632 -2352
WIRE 192 -2352 192 -2384
WIRE 464 -2352 192 -2352
WIRE 2080 -2352 2080 -2512
WIRE -1632 -2320 -1632 -2352
WIRE -896 -2320 -896 -2400
WIRE 192 -2320 192 -2352
WIRE 912 -2320 912 -2400
WIRE -2048 -2240 -2048 -2320
WIRE -224 -2240 -224 -2320
WIRE 2688 -2240 2688 -2320
WIRE -1296 -2224 -1296 -2304
WIRE 528 -2224 528 -2304
WIRE -1632 -2192 -1632 -2240
WIRE 192 -2192 192 -2240
WIRE -2048 -2144 -2048 -2176
WIRE -1840 -2144 -1856 -2144
WIRE -1808 -2144 -1840 -2144
WIRE -1696 -2144 -1728 -2144
WIRE -224 -2144 -224 -2176
WIRE -16 -2144 -32 -2144
WIRE 16 -2144 -16 -2144
WIRE 128 -2144 96 -2144
WIRE 2688 -2144 2688 -2176
WIRE -896 -2112 -896 -2240
WIRE 912 -2112 912 -2240
WIRE -1296 -2096 -1296 -2144
WIRE -944 -2096 -1296 -2096
WIRE 528 -2096 528 -2144
WIRE 864 -2096 528 -2096
WIRE -1296 -2064 -1296 -2096
WIRE 528 -2064 528 -2096
WIRE 1712 -2064 1712 -2512
WIRE 2080 -2048 2080 -2272
WIRE 2080 -2048 1760 -2048
WIRE -1632 -2016 -1632 -2096
WIRE 192 -2016 192 -2096
WIRE 2080 -2016 2080 -2048
WIRE -2048 -1920 -2048 -2064
WIRE -1296 -1920 -1296 -1984
WIRE -224 -1920 -224 -2064
WIRE 528 -1920 528 -1984
WIRE 912 -1920 912 -2016
WIRE 1712 -1920 1712 -1968
WIRE 1712 -1920 912 -1920
WIRE 2688 -1920 2688 -2064
WIRE -1840 -1872 -1840 -2144
WIRE -1840 -1872 -1904 -1872
WIRE -1632 -1872 -1840 -1872
WIRE -1488 -1872 -1568 -1872
WIRE -1360 -1872 -1408 -1872
WIRE -16 -1872 -16 -2144
WIRE -16 -1872 -80 -1872
WIRE 192 -1872 -16 -1872
WIRE 336 -1872 256 -1872
WIRE 464 -1872 416 -1872
WIRE 2080 -1872 2080 -1936
WIRE 2528 -1872 2480 -1872
WIRE 2624 -1872 2608 -1872
WIRE -1632 -1824 -1632 -1856
WIRE 192 -1824 192 -1856
WIRE 1680 -1824 1648 -1824
WIRE 1712 -1824 1680 -1824
WIRE 2016 -1824 1792 -1824
WIRE -2048 -1808 -2048 -1824
WIRE -2048 -1808 -2080 -1808
WIRE -224 -1808 -224 -1824
WIRE -224 -1808 -256 -1808
WIRE 2688 -1808 2688 -1824
WIRE 2720 -1808 2688 -1808
WIRE -1296 -1760 -1296 -1824
WIRE 528 -1760 528 -1824
WIRE -896 -1728 -896 -2016
WIRE 912 -1712 912 -1920
WIRE 2080 -1712 2080 -1776
WIRE 1680 -1648 1680 -1824
WIRE 2480 -1648 2480 -1872
WIRE 2480 -1648 1680 -1648
WIRE -1296 -1456 -1632 -1456
WIRE -896 -1456 -896 -1648
WIRE -896 -1456 -1296 -1456
WIRE 192 -1456 -896 -1456
WIRE 528 -1456 192 -1456
WIRE 912 -1456 912 -1632
WIRE 912 -1456 528 -1456
WIRE 1712 -1456 912 -1456
WIRE 2080 -1456 1712 -1456
WIRE 2288 -1456 2080 -1456
WIRE -896 -1424 -896 -1456
WIRE 912 -1424 912 -1456
WIRE -1632 -1408 -1632 -1456
WIRE 192 -1408 192 -1456
WIRE -1296 -1344 -1296 -1456
WIRE 528 -1344 528 -1456
WIRE -1632 -1296 -1632 -1328
WIRE -1360 -1296 -1632 -1296
WIRE 192 -1296 192 -1328
WIRE 464 -1296 192 -1296
WIRE 2080 -1296 2080 -1456
WIRE -1632 -1264 -1632 -1296
WIRE -896 -1264 -896 -1344
WIRE 192 -1264 192 -1296
WIRE 912 -1264 912 -1344
WIRE 2704 -1200 2704 -1280
WIRE -2048 -1184 -2048 -1264
WIRE -256 -1184 -256 -1264
WIRE -1296 -1168 -1296 -1248
WIRE 528 -1168 528 -1248
WIRE -1632 -1136 -1632 -1184
WIRE 192 -1136 192 -1184
WIRE 2704 -1104 2704 -1136
WIRE -2048 -1088 -2048 -1120
WIRE -1840 -1088 -1856 -1088
WIRE -1808 -1088 -1840 -1088
WIRE -1696 -1088 -1728 -1088
WIRE -256 -1088 -256 -1120
WIRE -16 -1088 -32 -1088
WIRE 16 -1088 -16 -1088
WIRE 128 -1088 96 -1088
WIRE -896 -1056 -896 -1184
WIRE 912 -1056 912 -1184
WIRE -1296 -1040 -1296 -1088
WIRE -944 -1040 -1296 -1040
WIRE 528 -1040 528 -1088
WIRE 864 -1040 528 -1040
WIRE -1296 -1008 -1296 -1040
WIRE 528 -1008 528 -1040
WIRE 1712 -1008 1712 -1456
WIRE 2080 -992 2080 -1216
WIRE 2080 -992 1760 -992
WIRE -1632 -960 -1632 -1040
WIRE 192 -960 192 -1040
WIRE 2080 -960 2080 -992
WIRE 2704 -880 2704 -1024
WIRE -2048 -864 -2048 -1008
WIRE -1296 -864 -1296 -928
WIRE -256 -864 -256 -1008
WIRE 528 -864 528 -928
WIRE 912 -864 912 -960
WIRE 1712 -864 1712 -912
WIRE 1712 -864 912 -864
WIRE 2640 -832 2624 -832
WIRE -1840 -816 -1840 -1088
WIRE -1840 -816 -1904 -816
WIRE -1632 -816 -1840 -816
WIRE -1488 -816 -1568 -816
WIRE -1360 -816 -1408 -816
WIRE -16 -816 -16 -1088
WIRE -16 -816 -112 -816
WIRE 176 -816 -16 -816
WIRE 336 -816 240 -816
WIRE 464 -816 416 -816
WIRE 2080 -816 2080 -880
WIRE -1632 -768 -1632 -800
WIRE 176 -768 176 -800
WIRE 1680 -768 1648 -768
WIRE 1712 -768 1680 -768
WIRE 2016 -768 1792 -768
WIRE 2704 -768 2704 -784
WIRE 2736 -768 2704 -768
WIRE -2048 -752 -2048 -768
WIRE -2048 -752 -2080 -752
WIRE -256 -752 -256 -768
WIRE -256 -752 -288 -752
WIRE -1296 -704 -1296 -768
WIRE 528 -704 528 -768
WIRE 2080 -656 2080 -720
WIRE 2992 -608 2992 -2512
WIRE 1680 -592 1680 -768
WIRE 2544 -592 2544 -832
WIRE 2544 -592 1680 -592
WIRE -896 -368 -896 -960
WIRE 192 -368 -896 -368
WIRE 528 -368 192 -368
WIRE 912 -368 912 -864
WIRE 912 -368 528 -368
WIRE 1744 -368 912 -368
WIRE 2080 -368 1744 -368
WIRE 2288 -368 2080 -368
WIRE 912 -304 912 -368
WIRE 192 -288 192 -368
WIRE 2080 -256 2080 -368
WIRE 528 -176 528 -368
WIRE 912 -160 912 -224
WIRE 192 -128 192 -208
WIRE 464 -128 192 -128
WIRE 192 -96 192 -128
WIRE 1744 -96 1744 -368
WIRE 1744 -96 1536 -96
WIRE 2656 -96 2656 -176
WIRE 1856 -80 1584 -80
WIRE 1536 -48 1536 -96
WIRE 1744 -48 1744 -96
WIRE 1584 -32 1584 -80
WIRE 1856 -32 1856 -80
WIRE 1856 -32 1792 -32
WIRE 2080 -32 2080 -176
WIRE 2080 -32 1856 -32
WIRE -192 -16 -192 -96
WIRE 528 0 528 -80
WIRE 2656 0 2656 -32
WIRE 912 16 912 -80
WIRE 1040 16 912 16
WIRE 1168 16 1136 16
WIRE 192 32 192 -16
WIRE 2080 48 2080 -32
WIRE 1536 64 1536 48
WIRE 1744 64 1744 48
WIRE 1744 64 1536 64
WIRE -192 80 -192 48
WIRE 0 80 -32 80
WIRE 16 80 0 80
WIRE 128 80 96 80
WIRE 1120 80 1120 64
WIRE 1120 80 768 80
WIRE 1168 96 1168 16
WIRE 912 112 912 16
WIRE 528 128 528 80
WIRE 768 128 768 80
WIRE 768 128 528 128
WIRE 864 128 768 128
WIRE 528 160 528 128
WIRE 192 208 192 128
WIRE 2656 224 2656 80
WIRE 912 240 912 208
WIRE 1744 240 1744 64
WIRE 1744 240 912 240
WIRE 2080 272 2080 128
WIRE 2592 272 2576 272
WIRE -192 304 -192 160
WIRE 528 304 528 240
WIRE 1712 320 1680 320
WIRE 1728 320 1712 320
WIRE 2016 320 1808 320
WIRE 2656 336 2656 320
WIRE 2688 336 2656 336
WIRE 0 352 0 80
WIRE 0 352 -48 352
WIRE 192 352 0 352
WIRE 336 352 256 352
WIRE 464 352 416 352
WIRE 912 368 912 240
WIRE 192 400 192 368
WIRE -192 416 -192 400
WIRE -192 416 -224 416
WIRE 2080 432 2080 368
WIRE 528 464 528 400
WIRE 1712 480 1712 320
WIRE 2496 480 2496 272
WIRE 2496 480 1712 480
WIRE 912 560 912 448
WIRE 2624 560 912 560
WIRE 2992 560 2992 -528
WIRE 2992 560 2624 560
WIRE -1456 1024 -1536 1024
WIRE -1072 1024 -1152 1024
WIRE -656 1024 -736 1024
WIRE -1536 1072 -1536 1024
WIRE -1152 1072 -1152 1024
WIRE -736 1072 -736 1024
WIRE -1536 1184 -1536 1152
WIRE -1152 1184 -1152 1152
WIRE -736 1184 -736 1152
WIRE -1472 1312 -1552 1312
WIRE -1072 1312 -1152 1312
WIRE -656 1312 -736 1312
WIRE -1552 1360 -1552 1312
WIRE -1152 1360 -1152 1312
WIRE -736 1360 -736 1312
WIRE -1552 1472 -1552 1440
WIRE -1152 1472 -1152 1440
WIRE -736 1472 -736 1440
FLAG 192 208 0
FLAG 528 464 0
FLAG -1632 -960 0
FLAG -1296 -704 0
FLAG 192 -960 0
FLAG 528 -704 0
FLAG -1152 1184 0
FLAG -736 1184 0
FLAG -1072 1024 VcMAS
FLAG -656 1024 VcMENOS
FLAG -736 1472 0
FLAG -656 1312 VcOFF
FLAG -1152 1472 0
FLAG -1072 1312 VcON
FLAG -1856 -1088 VcON
FLAG -32 -1088 VcON
FLAG -32 80 VcOFF
FLAG 2624 560 out_neg
FLAG 2288 -368 out_1
FLAG 2080 432 0
FLAG 1680 320 VcON
FLAG 2080 -656 0
FLAG 1648 -768 VcOFF
FLAG 2992 -2512 out_pos
FLAG -1536 1184 0
FLAG -1456 1024 VcMAS_delayed
FLAG -1552 1472 0
FLAG -1472 1312 VcMENOS_delayed
FLAG 1168 96 0
FLAG -1632 -2016 0
FLAG -1296 -1760 0
FLAG 192 -2016 0
FLAG 528 -1760 0
FLAG -1856 -2144 VcON
FLAG -32 -2144 VcON
FLAG 2080 -1712 0
FLAG 1648 -1824 VcOFF
FLAG -1632 -1824 0
FLAG 192 -1824 0
FLAG 176 -768 0
FLAG -1632 -768 0
FLAG 192 400 0
FLAG 2288 -1456 out_2
FLAG -224 416 0
FLAG -2080 -752 0
FLAG -288 -752 0
FLAG -256 -1808 0
FLAG -2080 -1808 0
FLAG 2720 -1808 0
FLAG 2736 -768 0
FLAG 2688 336 0
FLAG 2656 -176 VcON
FLAG -192 -96 VcON
FLAG -256 -1264 VcON
FLAG -2048 -1264 VcON
FLAG 2704 -1280 VcON
FLAG 2688 -2320 VcON
FLAG -224 -2320 VcON
FLAG -2048 -2320 VcON
FLAG -1632 -3072 0
FLAG -1296 -2816 0
FLAG 192 -3072 0
FLAG 528 -2816 0
FLAG -1856 -3200 VcON
FLAG -32 -3200 VcON
FLAG 2080 -2768 0
FLAG 1648 -2880 VcOFF
FLAG -1632 -2880 0
FLAG 192 -2880 0
FLAG -256 -2864 0
FLAG -2080 -2864 0
FLAG 2720 -2864 0
FLAG 2688 -3376 VcON
FLAG -224 -3376 VcON
FLAG -2048 -3376 VcON
FLAG -1616 -4144 0
FLAG -1280 -3888 0
FLAG 208 -4144 0
FLAG 544 -3888 0
FLAG -1840 -4272 VcON
FLAG -16 -4272 VcON
FLAG 2096 -3840 0
FLAG 1664 -3952 VcOFF
FLAG -1616 -3952 0
FLAG 208 -3952 0
FLAG -240 -3936 0
FLAG -2064 -3936 0
FLAG 2736 -3936 0
FLAG 2704 -4448 VcON
FLAG -208 -4448 VcON
FLAG -2032 -4448 VcON
DATAFLAG 1488 -2512 ""
DATAFLAG 1504 -1456 ""
DATAFLAG 1328 -864 ""
DATAFLAG 1232 -2512 "$-V(N023)"
DATAFLAG 2992 -656 "$-V(out_neg)"
DATAFLAG 1824 -1456 "$-V(out_1)"
DATAFLAG 1824 -2048 "$-V(out_pos)"
DATAFLAG 1808 -992 "$-V(out_2)"
DATAFLAG 912 -1152 ""
DATAFLAG 912 -2192 ""
DATAFLAG 912 -208 ""
DATAFLAG 912 -16 ""
DATAFLAG 1488 -3568 ""
DATAFLAG 1232 -3568 "$-V(N023)"
DATAFLAG 1824 -3104 "$-V(out_pos)"
DATAFLAG 912 -3248 ""
DATAFLAG 1504 -4640 ""
DATAFLAG 1248 -4640 "$-V(N023)"
DATAFLAG 1840 -4176 "$-V(out_pos)"
DATAFLAG 928 -4320 ""
SYMBOL npn 464 304 R0
SYMATTR InstName Q12_3
SYMATTR Value MMBT2222A
SYMBOL res 512 144 R0
SYMATTR InstName R12_5
SYMATTR Value 33k
SYMBOL res 512 -16 R0
SYMATTR InstName R12_4
SYMATTR Value 4.7k
SYMBOL npn 128 32 R0
SYMATTR InstName Q12_1
SYMATTR Value MMBT2222A
SYMBOL res 176 -112 R0
SYMATTR InstName R12_3
SYMATTR Value 1k
SYMBOL res 176 -304 R0
SYMATTR InstName R12_2
SYMATTR Value 10k
SYMBOL res 432 336 R90
WINDOW 0 0 56 VBottom 2
WINDOW 3 32 56 VTop 2
SYMATTR InstName R12_6
SYMATTR Value 20k
SYMBOL voltage 912 -176 R0
WINDOW 123 0 0 Left 0
WINDOW 39 0 0 Left 0
SYMATTR InstName Vcell12
SYMATTR Value 3.3
SYMBOL pnp 464 -80 M180
SYMATTR InstName Q12_2
SYMATTR Value MMBT2907A
SYMBOL nmos 864 208 M180
SYMATTR InstName S12
SYMATTR Value IRLB8721
SYMATTR Prefix X
SYMBOL npn -1360 -864 R0
SYMATTR InstName Q21_3
SYMATTR Value MMBT2222A
SYMBOL res -1312 -1024 R0
SYMATTR InstName R21_5
SYMATTR Value 33k
SYMBOL res -1312 -1184 R0
SYMATTR InstName R21_4
SYMATTR Value 4.7k
SYMBOL npn -1696 -1136 R0
SYMATTR InstName Q21_1
SYMATTR Value MMBT2222A
SYMBOL res -1648 -1280 R0
SYMATTR InstName R21_3
SYMATTR Value 1k
SYMBOL res -1648 -1424 R0
SYMATTR InstName R21_2
SYMATTR Value 10k
SYMBOL res -1392 -832 R90
WINDOW 0 0 56 VBottom 2
WINDOW 3 32 56 VTop 2
SYMATTR InstName R21_6
SYMATTR Value 20k
SYMBOL voltage -896 -1280 R0
WINDOW 123 0 0 Left 0
WINDOW 39 0 0 Left 0
SYMATTR InstName Vcell21
SYMATTR Value 3.3
SYMBOL pnp -1360 -1248 M180
SYMATTR InstName Q21_2
SYMATTR Value MMBT2907A
SYMBOL nmos -944 -960 M180
SYMATTR InstName S21
SYMATTR Value IRLB8721
SYMATTR Prefix X
SYMBOL npn 464 -864 R0
SYMATTR InstName Q22_3
SYMATTR Value MMBT2222A
SYMBOL res 512 -1024 R0
SYMATTR InstName R22_5
SYMATTR Value 33k
SYMBOL res 512 -1184 R0
SYMATTR InstName R22_4
SYMATTR Value 4.7k
SYMBOL npn 128 -1136 R0
SYMATTR InstName Q22_1
SYMATTR Value MMBT2222A
SYMBOL res 176 -1280 R0
SYMATTR InstName R22_3
SYMATTR Value 1k
SYMBOL res 176 -1424 R0
SYMATTR InstName R22_2
SYMATTR Value 10k
SYMBOL res 432 -832 R90
WINDOW 0 0 56 VBottom 2
WINDOW 3 32 56 VTop 2
SYMATTR InstName R22_6
SYMATTR Value 20k
SYMBOL voltage 912 -1280 R0
WINDOW 123 0 0 Left 0
WINDOW 39 0 0 Left 0
SYMATTR InstName Vcell22
SYMATTR Value 3.3
SYMBOL pnp 464 -1248 M180
SYMATTR InstName Q22_2
SYMATTR Value MMBT2907A
SYMBOL nmos 864 -960 M180
SYMATTR InstName S22
SYMATTR Value IRLB8721
SYMATTR Prefix X
SYMBOL voltage -1152 1056 R0
WINDOW 3 -180 103 Left 2
WINDOW 123 0 0 Left 0
WINDOW 39 0 0 Left 0
SYMATTR Value PULSE(0 5 0 1p 1p 10m 20m)
SYMATTR InstName Vcontrol1
SYMBOL voltage -736 1056 R0
WINDOW 3 -192 102 Left 2
WINDOW 123 0 0 Left 0
WINDOW 39 0 0 Left 0
SYMATTR Value PULSE(0 5 10m 1p 1p 10m 20m)
SYMATTR InstName Vcontrol2
SYMBOL voltage -736 1344 R0
WINDOW 3 27 92 Left 2
WINDOW 123 0 0 Left 0
WINDOW 39 0 0 Left 0
SYMATTR Value 0
SYMATTR InstName Voff
SYMBOL voltage -1152 1344 R0
WINDOW 3 28 92 Left 2
WINDOW 123 0 0 Left 0
WINDOW 39 0 0 Left 0
SYMATTR Value 5
SYMATTR InstName Von
SYMBOL res -1712 -1104 R90
WINDOW 0 0 56 VBottom 2
WINDOW 3 32 56 VTop 2
SYMATTR InstName R21_1
SYMATTR Value 20k
SYMBOL res 112 -1104 R90
WINDOW 0 0 56 VBottom 2
WINDOW 3 32 56 VTop 2
SYMATTR InstName R22_1
SYMATTR Value 20k
SYMBOL res 112 64 R90
WINDOW 0 0 56 VBottom 2
WINDOW 3 32 56 VTop 2
SYMATTR InstName R12_1
SYMATTR Value 20k
SYMBOL res 896 -320 R0
SYMATTR InstName Rout12
SYMATTR Value 1m
SYMBOL res -912 -1440 R0
SYMATTR InstName Rout21
SYMATTR Value 1m
SYMBOL res 896 -1440 R0
SYMATTR InstName Rout22
SYMATTR Value 1m
SYMBOL npn 2016 272 R0
SYMATTR InstName Q1_1
SYMATTR Value MMBT2222A
SYMBOL res 1824 304 R90
WINDOW 0 0 56 VBottom 2
WINDOW 3 32 56 VTop 2
SYMATTR InstName R1_9
SYMATTR Value 20k
SYMBOL res 2064 -272 R0
SYMATTR InstName R1_7
SYMATTR Value 570K
SYMBOL npn 2016 -816 R0
SYMATTR InstName Q2_1
SYMATTR Value MMBT2222A
SYMBOL res 1808 -784 R90
WINDOW 0 0 56 VBottom 2
WINDOW 3 32 56 VTop 2
SYMATTR InstName R2_9
SYMATTR Value 20k
SYMBOL res 2064 -1312 R0
SYMATTR InstName R2_7
SYMATTR Value 47k
SYMBOL voltage -1536 1056 R0
WINDOW 3 -180 103 Left 2
WINDOW 123 0 0 Left 0
WINDOW 39 0 0 Left 0
SYMATTR Value PULSE(0 5 1m 1p 1p 10m 20m)
SYMATTR InstName Vcontrol3
SYMBOL voltage -1552 1344 R0
WINDOW 3 -192 102 Left 2
WINDOW 123 0 0 Left 0
WINDOW 39 0 0 Left 0
SYMATTR Value PULSE(0 5 10.1m 1p 1p 10m 20m)
SYMATTR InstName Vcontrol4
SYMBOL nmos 1040 64 R270
SYMATTR InstName Sgnd12
SYMATTR Value IRLB8721
SYMATTR Prefix X
SYMBOL npn -1360 -1920 R0
SYMATTR InstName Q31_1
SYMATTR Value MMBT2222A
SYMBOL res -1312 -2080 R0
SYMATTR InstName R31_5
SYMATTR Value 33k
SYMBOL res -1312 -2240 R0
SYMATTR InstName R31_4
SYMATTR Value 4.7k
SYMBOL npn -1696 -2192 R0
SYMATTR InstName Q2
SYMATTR Value MMBT2222A
SYMBOL res -1648 -2336 R0
SYMATTR InstName R31_3
SYMATTR Value 10K
SYMBOL res -1648 -2480 R0
SYMATTR InstName R31_2
SYMATTR Value 100K
SYMBOL res -1392 -1888 R90
WINDOW 0 0 56 VBottom 2
WINDOW 3 32 56 VTop 2
SYMATTR InstName R31_6
SYMATTR Value 20k
SYMBOL voltage -896 -2336 R0
WINDOW 123 0 0 Left 0
WINDOW 39 0 0 Left 0
SYMATTR InstName Vcell31
SYMATTR Value 3.3
SYMBOL pnp -1360 -2304 M180
SYMATTR InstName Q31_2
SYMATTR Value MMBT2907A
SYMBOL nmos -944 -2016 M180
SYMATTR InstName S31
SYMATTR Value IRLB8721
SYMATTR Prefix X
SYMBOL npn 464 -1920 R0
SYMATTR InstName Q32_1
SYMATTR Value MMBT2222A
SYMBOL res 512 -2080 R0
SYMATTR InstName R32_5
SYMATTR Value 33k
SYMBOL res 512 -2240 R0
SYMATTR InstName R32_4
SYMATTR Value 4.7k
SYMBOL npn 128 -2192 R0
SYMATTR InstName Q5
SYMATTR Value MMBT2222A
SYMBOL res 176 -2336 R0
SYMATTR InstName R32_3
SYMATTR Value 1k
SYMBOL res 176 -2480 R0
SYMATTR InstName R32_2
SYMATTR Value 10k
SYMBOL res 432 -1888 R90
WINDOW 0 0 56 VBottom 2
WINDOW 3 32 56 VTop 2
SYMATTR InstName R32_6
SYMATTR Value 20k
SYMBOL voltage 912 -2336 R0
WINDOW 123 0 0 Left 0
WINDOW 39 0 0 Left 0
SYMATTR InstName Vcell32
SYMATTR Value 3.3
SYMBOL pnp 464 -2304 M180
SYMATTR InstName Q32_2
SYMATTR Value MMBT2907A
SYMBOL nmos 864 -2016 M180
SYMATTR InstName S32
SYMATTR Value IRLB8721
SYMATTR Prefix X
SYMBOL res -1712 -2160 R90
WINDOW 0 0 56 VBottom 2
WINDOW 3 32 56 VTop 2
SYMATTR InstName R31_1
SYMATTR Value 20k
SYMBOL res 112 -2160 R90
WINDOW 0 0 56 VBottom 2
WINDOW 3 32 56 VTop 2
SYMATTR InstName R32_1
SYMATTR Value 20k
SYMBOL res -912 -2496 R0
SYMATTR InstName Rout31
SYMATTR Value 1m
SYMBOL res 896 -2496 R0
SYMATTR InstName Rout32
SYMATTR Value 1m
SYMBOL npn 2016 -1872 R0
SYMATTR InstName Q3_1
SYMATTR Value MMBT2222A
SYMBOL res 1808 -1840 R90
WINDOW 0 0 56 VBottom 2
WINDOW 3 32 56 VTop 2
SYMATTR InstName R3_9
SYMATTR Value 20k
SYMBOL res 2064 -2368 R0
SYMATTR InstName R3_7
SYMATTR Value 47k
SYMBOL res 896 -1728 R0
SYMATTR InstName R16
SYMATTR Value 1m
SYMBOL res -912 -1744 R0
SYMATTR InstName R17
SYMATTR Value 1m
SYMBOL Digital\\inv -1632 -1936 R0
SYMATTR InstName A1
SYMBOL Digital\\inv 192 -1936 R0
SYMATTR InstName A2
SYMBOL Digital\\inv 176 -880 R0
SYMATTR InstName A3
SYMBOL Digital\\inv -1632 -880 R0
SYMATTR InstName A4
SYMBOL Digital\\inv 192 288 R0
SYMATTR InstName A6
SYMBOL pmos 1760 -1968 R180
SYMATTR InstName S4
SYMATTR Value AO3401A
SYMATTR Prefix X
SYMBOL pmos 1760 -912 R180
SYMATTR InstName S2
SYMATTR Value AO3401A
SYMATTR Prefix X
SYMBOL pmos 1792 48 R180
SYMATTR InstName S1
SYMATTR Value AO3401A
SYMATTR Prefix X
SYMBOL voltage 912 352 R0
WINDOW 123 0 0 Left 0
WINDOW 39 0 0 Left 0
SYMATTR InstName V1
SYMATTR Value 0
SYMBOL npn -128 304 M0
SYMATTR InstName Q3
SYMATTR Value MMBT2222A
SYMBOL res -176 64 M0
SYMATTR InstName R3
SYMATTR Value 1k
SYMBOL res -32 336 R90
WINDOW 0 0 56 VBottom 2
WINDOW 3 32 56 VTop 2
SYMATTR InstName R4
SYMATTR Value 20k
SYMBOL LED -208 -16 R0
SYMATTR InstName D4
SYMBOL npn -1984 -864 M0
SYMATTR InstName Q4
SYMATTR Value MMBT2222A
SYMBOL res -2032 -1104 M0
SYMATTR InstName R5
SYMATTR Value 1k
SYMBOL res -1888 -832 R90
WINDOW 0 0 56 VBottom 2
WINDOW 3 32 56 VTop 2
SYMATTR InstName R6
SYMATTR Value 20k
SYMBOL LED -2064 -1184 R0
SYMATTR InstName D6
SYMBOL npn -192 -864 M0
SYMATTR InstName Q6
SYMATTR Value MMBT2222A
SYMBOL res -240 -1104 M0
SYMATTR InstName R7
SYMATTR Value 1k
SYMBOL res -96 -832 R90
WINDOW 0 0 56 VBottom 2
WINDOW 3 32 56 VTop 2
SYMATTR InstName R8
SYMATTR Value 20k
SYMBOL LED -272 -1184 R0
SYMATTR InstName D7
SYMBOL npn -160 -1920 M0
SYMATTR InstName Q7
SYMATTR Value MMBT2222A
SYMBOL res -208 -2160 M0
SYMATTR InstName R9
SYMATTR Value 1k
SYMBOL res -64 -1888 R90
WINDOW 0 0 56 VBottom 2
WINDOW 3 32 56 VTop 2
SYMATTR InstName R10
SYMATTR Value 20k
SYMBOL LED -240 -2240 R0
SYMATTR InstName D8
SYMBOL npn -1984 -1920 M0
SYMATTR InstName Q8
SYMATTR Value MMBT2222A
SYMBOL res -2032 -2160 M0
SYMATTR InstName R11
SYMATTR Value 1k
SYMBOL res -1888 -1888 R90
WINDOW 0 0 56 VBottom 2
WINDOW 3 32 56 VTop 2
SYMATTR InstName R12
SYMATTR Value 20k
SYMBOL LED -2064 -2240 R0
SYMATTR InstName D9
SYMBOL npn 2624 -1920 R0
SYMATTR InstName Q9
SYMATTR Value MMBT2222A
SYMBOL res 2672 -2160 R0
SYMATTR InstName R13
SYMATTR Value 1k
SYMBOL res 2512 -1888 M90
WINDOW 0 0 56 VBottom 2
WINDOW 3 32 56 VTop 2
SYMATTR InstName R14
SYMATTR Value 20k
SYMBOL LED 2704 -2240 M0
SYMATTR InstName D10
SYMBOL npn 2640 -880 R0
SYMATTR InstName Q10
SYMATTR Value MMBT2222A
SYMBOL res 2688 -1120 R0
SYMATTR InstName R15
SYMATTR Value 1k
SYMBOL res 2528 -848 M90
WINDOW 0 0 56 VBottom 2
WINDOW 3 32 56 VTop 2
SYMATTR InstName R18
SYMATTR Value 20k
SYMBOL LED 2720 -1200 M0
SYMATTR InstName D13
SYMBOL npn 2592 224 R0
SYMATTR InstName Q11
SYMATTR Value MMBT2222A
SYMBOL res 2640 -16 R0
SYMATTR InstName R19
SYMATTR Value 1k
SYMBOL res 2480 256 M90
WINDOW 0 0 56 VBottom 2
WINDOW 3 32 56 VTop 2
SYMATTR InstName R20
SYMATTR Value 20k
SYMBOL LED 2672 -96 M0
SYMATTR InstName D14
SYMBOL res 2064 32 R0
SYMATTR InstName R1_8
SYMATTR Value 330K
SYMBOL res 2064 -976 R0
SYMATTR InstName R2_8
SYMATTR Value 10k
SYMBOL res 2064 -2032 R0
SYMATTR InstName R3_8
SYMATTR Value 10k
SYMBOL res 2976 -624 R0
SYMATTR InstName R1
SYMATTR Value 4
SYMBOL npn -1360 -2976 R0
SYMATTR InstName Q1
SYMATTR Value MMBT2222A
SYMBOL res -1312 -3136 R0
SYMATTR InstName R2
SYMATTR Value 33k
SYMBOL res -1312 -3296 R0
SYMATTR InstName R21
SYMATTR Value 4.7k
SYMBOL npn -1696 -3248 R0
SYMATTR InstName Q12
SYMATTR Value MMBT2222A
SYMBOL res -1648 -3392 R0
SYMATTR InstName R22
SYMATTR Value 10K
SYMBOL res -1648 -3536 R0
SYMATTR InstName R23
SYMATTR Value 100K
SYMBOL res -1392 -2944 R90
WINDOW 0 0 56 VBottom 2
WINDOW 3 32 56 VTop 2
SYMATTR InstName R24
SYMATTR Value 20k
SYMBOL voltage -896 -3392 R0
WINDOW 123 0 0 Left 0
WINDOW 39 0 0 Left 0
SYMATTR InstName Vcell1
SYMATTR Value 3.3
SYMBOL pnp -1360 -3360 M180
SYMATTR InstName Q13
SYMATTR Value MMBT2907A
SYMBOL nmos -944 -3072 M180
SYMATTR InstName S3
SYMATTR Value IRLB8721
SYMATTR Prefix X
SYMBOL npn 464 -2976 R0
SYMATTR InstName Q14
SYMATTR Value MMBT2222A
SYMBOL res 512 -3136 R0
SYMATTR InstName R25
SYMATTR Value 33k
SYMBOL res 512 -3296 R0
SYMATTR InstName R26
SYMATTR Value 4.7k
SYMBOL npn 128 -3248 R0
SYMATTR InstName Q15
SYMATTR Value MMBT2222A
SYMBOL res 176 -3392 R0
SYMATTR InstName R27
SYMATTR Value 1k
SYMBOL res 176 -3536 R0
SYMATTR InstName R28
SYMATTR Value 10k
SYMBOL res 432 -2944 R90
WINDOW 0 0 56 VBottom 2
WINDOW 3 32 56 VTop 2
SYMATTR InstName R29
SYMATTR Value 20k
SYMBOL voltage 912 -3392 R0
WINDOW 123 0 0 Left 0
WINDOW 39 0 0 Left 0
SYMATTR InstName Vcell2
SYMATTR Value 3.3
SYMBOL pnp 464 -3360 M180
SYMATTR InstName Q16
SYMATTR Value MMBT2907A
SYMBOL nmos 864 -3072 M180
SYMATTR InstName S5
SYMATTR Value IRLB8721
SYMATTR Prefix X
SYMBOL res -1712 -3216 R90
WINDOW 0 0 56 VBottom 2
WINDOW 3 32 56 VTop 2
SYMATTR InstName R30
SYMATTR Value 20k
SYMBOL res 112 -3216 R90
WINDOW 0 0 56 VBottom 2
WINDOW 3 32 56 VTop 2
SYMATTR InstName R31
SYMATTR Value 20k
SYMBOL res -912 -3552 R0
SYMATTR InstName Rout1
SYMATTR Value 1m
SYMBOL res 896 -3552 R0
SYMATTR InstName Rout2
SYMATTR Value 1m
SYMBOL npn 2016 -2928 R0
SYMATTR InstName Q17
SYMATTR Value MMBT2222A
SYMBOL res 1808 -2896 R90
WINDOW 0 0 56 VBottom 2
WINDOW 3 32 56 VTop 2
SYMATTR InstName R32
SYMATTR Value 20k
SYMBOL res 2064 -3424 R0
SYMATTR InstName R33
SYMATTR Value 47k
SYMBOL res 896 -2784 R0
SYMATTR InstName R34
SYMATTR Value 1m
SYMBOL res -912 -2800 R0
SYMATTR InstName R35
SYMATTR Value 1m
SYMBOL Digital\\inv -1632 -2992 R0
SYMATTR InstName A5
SYMBOL Digital\\inv 192 -2992 R0
SYMATTR InstName A7
SYMBOL pmos 1760 -3024 R180
SYMATTR InstName S6
SYMATTR Value AO3401A
SYMATTR Prefix X
SYMBOL npn -160 -2976 M0
SYMATTR InstName Q18
SYMATTR Value MMBT2222A
SYMBOL res -208 -3216 M0
SYMATTR InstName R36
SYMATTR Value 1k
SYMBOL res -64 -2944 R90
WINDOW 0 0 56 VBottom 2
WINDOW 3 32 56 VTop 2
SYMATTR InstName R37
SYMATTR Value 20k
SYMBOL LED -240 -3296 R0
SYMATTR InstName D1
SYMBOL npn -1984 -2976 M0
SYMATTR InstName Q19
SYMATTR Value MMBT2222A
SYMBOL res -2032 -3216 M0
SYMATTR InstName R38
SYMATTR Value 1k
SYMBOL res -1888 -2944 R90
WINDOW 0 0 56 VBottom 2
WINDOW 3 32 56 VTop 2
SYMATTR InstName R39
SYMATTR Value 20k
SYMBOL LED -2064 -3296 R0
SYMATTR InstName D2
SYMBOL npn 2624 -2976 R0
SYMATTR InstName Q20
SYMATTR Value MMBT2222A
SYMBOL res 2672 -3216 R0
SYMATTR InstName R40
SYMATTR Value 1k
SYMBOL res 2512 -2944 M90
WINDOW 0 0 56 VBottom 2
WINDOW 3 32 56 VTop 2
SYMATTR InstName R41
SYMATTR Value 20k
SYMBOL LED 2704 -3296 M0
SYMATTR InstName D3
SYMBOL res 2064 -3088 R0
SYMATTR InstName R42
SYMATTR Value 10k
SYMBOL npn -1344 -4048 R0
SYMATTR InstName Q21
SYMATTR Value MMBT2222A
SYMBOL res -1296 -4208 R0
SYMATTR InstName R43
SYMATTR Value 33k
SYMBOL res -1296 -4368 R0
SYMATTR InstName R44
SYMATTR Value 4.7k
SYMBOL npn -1680 -4320 R0
SYMATTR InstName Q22
SYMATTR Value MMBT2222A
SYMBOL res -1632 -4464 R0
SYMATTR InstName R45
SYMATTR Value 10K
SYMBOL res -1632 -4608 R0
SYMATTR InstName R46
SYMATTR Value 100K
SYMBOL res -1376 -4016 R90
WINDOW 0 0 56 VBottom 2
WINDOW 3 32 56 VTop 2
SYMATTR InstName R47
SYMATTR Value 20k
SYMBOL voltage -880 -4464 R0
WINDOW 123 0 0 Left 0
WINDOW 39 0 0 Left 0
SYMATTR InstName Vcell3
SYMATTR Value 3.3
SYMBOL pnp -1344 -4432 M180
SYMATTR InstName Q23
SYMATTR Value MMBT2907A
SYMBOL nmos -928 -4144 M180
SYMATTR InstName S7
SYMATTR Value IRLB8721
SYMATTR Prefix X
SYMBOL npn 480 -4048 R0
SYMATTR InstName Q24
SYMATTR Value MMBT2222A
SYMBOL res 528 -4208 R0
SYMATTR InstName R48
SYMATTR Value 33k
SYMBOL res 528 -4368 R0
SYMATTR InstName R49
SYMATTR Value 4.7k
SYMBOL npn 144 -4320 R0
SYMATTR InstName Q25
SYMATTR Value MMBT2222A
SYMBOL res 192 -4464 R0
SYMATTR InstName R50
SYMATTR Value 1k
SYMBOL res 192 -4608 R0
SYMATTR InstName R51
SYMATTR Value 10k
SYMBOL res 448 -4016 R90
WINDOW 0 0 56 VBottom 2
WINDOW 3 32 56 VTop 2
SYMATTR InstName R52
SYMATTR Value 20k
SYMBOL voltage 928 -4464 R0
WINDOW 123 0 0 Left 0
WINDOW 39 0 0 Left 0
SYMATTR InstName Vcell4
SYMATTR Value 3.3
SYMBOL pnp 480 -4432 M180
SYMATTR InstName Q26
SYMATTR Value MMBT2907A
SYMBOL nmos 880 -4144 M180
SYMATTR InstName S8
SYMATTR Value IRLB8721
SYMATTR Prefix X
SYMBOL res -1696 -4288 R90
WINDOW 0 0 56 VBottom 2
WINDOW 3 32 56 VTop 2
SYMATTR InstName R53
SYMATTR Value 20k
SYMBOL res 128 -4288 R90
WINDOW 0 0 56 VBottom 2
WINDOW 3 32 56 VTop 2
SYMATTR InstName R54
SYMATTR Value 20k
SYMBOL res -896 -4624 R0
SYMATTR InstName Rout3
SYMATTR Value 1m
SYMBOL res 912 -4624 R0
SYMATTR InstName Rout4
SYMATTR Value 1m
SYMBOL npn 2032 -4000 R0
SYMATTR InstName Q27
SYMATTR Value MMBT2222A
SYMBOL res 1824 -3968 R90